# generated using pymatgen
data_Ba2TiIrSO
_symmetry_space_group_name_H-M   'P 1'
_cell_length_a   6.20334196
_cell_length_b   7.47897959
_cell_length_c   15.00000000
_cell_angle_alpha   90.00000000
_cell_angle_beta   90.00000000
_cell_angle_gamma   90.00000000
_symmetry_Int_Tables_number   1
_chemical_formula_structural   Ba2TiIrSO
_chemical_formula_sum   'Ba2 Ti1 Ir1 S1 O1'
_cell_volume   695.92001850
_cell_formula_units_Z   1
loop_
 _symmetry_equiv_pos_site_id
 _symmetry_equiv_pos_as_xyz
  1  'x, y, z'
loop_
 _atom_site_type_symbol
 _atom_site_label
 _atom_site_symmetry_multiplicity
 _atom_site_fract_x
 _atom_site_fract_y
 _atom_site_fract_z
 _atom_site_occupancy
  Ir  Ir0  1  0.28563177  0.76730004  0.53205247  1
  Ba  Ba1  1  0.26483339  0.66070237  0.46977122  1
  O  O2  1  0.60803863  0.14118615  0.47025285  1
  Ti  Ti3  1  0.70938270  0.39328621  0.51857071  1
  Ba  Ba4  1  0.28252501  0.20543860  0.51034920  1
  S  S5  1  0.84958841  0.83208665  0.49900355  1
