# generated using pymatgen
data_LiBiRuC
_symmetry_space_group_name_H-M   'P 1'
_cell_length_a   6.32775736
_cell_length_b   6.67170000
_cell_length_c   15.00000000
_cell_angle_alpha   90.00000000
_cell_angle_beta   90.00000000
_cell_angle_gamma   90.00000000
_symmetry_Int_Tables_number   1
_chemical_formula_structural   LiBiRuC
_chemical_formula_sum   'Li1 Bi1 Ru1 C1'
_cell_volume   633.25348161
_cell_formula_units_Z   1
loop_
 _symmetry_equiv_pos_site_id
 _symmetry_equiv_pos_as_xyz
  1  'x, y, z'
loop_
 _atom_site_type_symbol
 _atom_site_label
 _atom_site_symmetry_multiplicity
 _atom_site_fract_x
 _atom_site_fract_y
 _atom_site_fract_z
 _atom_site_occupancy
  C  C0  1  0.29182622  0.03427531  0.48241397  1
  Li  Li1  1  0.73454800  0.60629716  0.50462276  1
  Bi  Bi2  1  0.64484676  0.30652349  0.48859825  1
  Ru  Ru3  1  0.32877902  0.05290406  0.52436502  1
