# generated using pymatgen
data_LiCoSnAsIrPd
_symmetry_space_group_name_H-M   'P 1'
_cell_length_a   9.54576588
_cell_length_b   5.29245090
_cell_length_c   15.00000000
_cell_angle_alpha   90.00000000
_cell_angle_beta   90.00000000
_cell_angle_gamma   90.00000000
_symmetry_Int_Tables_number   1
_chemical_formula_structural   LiCoSnAsIrPd
_chemical_formula_sum   'Li1 Co1 Sn1 As1 Ir1 Pd1'
_cell_volume   757.80745878
_cell_formula_units_Z   1
loop_
 _symmetry_equiv_pos_site_id
 _symmetry_equiv_pos_as_xyz
  1  'x, y, z'
loop_
 _atom_site_type_symbol
 _atom_site_label
 _atom_site_symmetry_multiplicity
 _atom_site_fract_x
 _atom_site_fract_y
 _atom_site_fract_z
 _atom_site_occupancy
  Ir  Ir0  1  0.84640100  0.85093430  0.52825312  1
  Pd  Pd1  1  0.58704315  0.27841546  0.49155535  1
  Li  Li2  1  0.12011768  0.06105331  0.53984396  1
  Sn  Sn3  1  0.99048444  0.03747031  0.46544679  1
  Co  Co4  1  0.37752617  0.11581437  0.50078184  1
  As  As5  1  0.07842758  0.65631223  0.47411894  1
