# generated using pymatgen
data_MgTaMnGaPt
_symmetry_space_group_name_H-M   'P 1'
_cell_length_a   7.73082113
_cell_length_b   7.55662155
_cell_length_c   15.00000000
_cell_angle_alpha   90.00000000
_cell_angle_beta   90.00000000
_cell_angle_gamma   90.00000000
_symmetry_Int_Tables_number   1
_chemical_formula_structural   MgTaMnGaPt
_chemical_formula_sum   'Mg1 Ta1 Mn1 Ga1 Pt1'
_cell_volume   876.28334373
_cell_formula_units_Z   1
loop_
 _symmetry_equiv_pos_site_id
 _symmetry_equiv_pos_as_xyz
  1  'x, y, z'
loop_
 _atom_site_type_symbol
 _atom_site_label
 _atom_site_symmetry_multiplicity
 _atom_site_fract_x
 _atom_site_fract_y
 _atom_site_fract_z
 _atom_site_occupancy
  Ga  Ga0  1  0.98223557  0.43033999  0.48528443  1
  Mn  Mn1  1  0.66253479  0.00313163  0.52297244  1
  Ta  Ta2  1  0.40383006  0.76474600  0.46930417  1
  Mg  Mg3  1  0.12663654  0.10677392  0.52338164  1
  Pt  Pt4  1  0.82476304  0.69500849  0.49905733  1
