# generated using pymatgen
data_SrZrMnPH
_symmetry_space_group_name_H-M   'P 1'
_cell_length_a   11.34660244
_cell_length_b   5.56608248
_cell_length_c   15.00000000
_cell_angle_alpha   90.00000000
_cell_angle_beta   90.00000000
_cell_angle_gamma   90.00000000
_symmetry_Int_Tables_number   1
_chemical_formula_structural   SrZrMnPH
_chemical_formula_sum   'Sr1 Zr1 Mn1 P1 H1'
_cell_volume   947.34187531
_cell_formula_units_Z   1
loop_
 _symmetry_equiv_pos_site_id
 _symmetry_equiv_pos_as_xyz
  1  'x, y, z'
loop_
 _atom_site_type_symbol
 _atom_site_label
 _atom_site_symmetry_multiplicity
 _atom_site_fract_x
 _atom_site_fract_y
 _atom_site_fract_z
 _atom_site_occupancy
  Mn  Mn0  1  0.86381631  0.38420148  0.48739289  1
  P  P1  1  0.22054151  0.01057796  0.54375736  1
  Sr  Sr2  1  0.45717800  0.74352064  0.48088565  1
  Zr  Zr3  1  0.17755038  0.87799588  0.52285565  1
  H  H4  1  0.28091381  0.98370409  0.46510845  1
