# generated using pymatgen
data_ZrMnInGeCIF
_symmetry_space_group_name_H-M   'P 1'
_cell_length_a   7.02804375
_cell_length_b   6.83995724
_cell_length_c   15.00000000
_cell_angle_alpha   90.00000000
_cell_angle_beta   90.00000000
_cell_angle_gamma   90.00000000
_symmetry_Int_Tables_number   1
_chemical_formula_structural   ZrMnInGeCIF
_chemical_formula_sum   'Zr1 Mn1 In1 Ge1 C1 I1 F1'
_cell_volume   721.07278036
_cell_formula_units_Z   1
loop_
 _symmetry_equiv_pos_site_id
 _symmetry_equiv_pos_as_xyz
  1  'x, y, z'
loop_
 _atom_site_type_symbol
 _atom_site_label
 _atom_site_symmetry_multiplicity
 _atom_site_fract_x
 _atom_site_fract_y
 _atom_site_fract_z
 _atom_site_occupancy
  C  C0  1  0.98601187  0.25610125  0.51073546  1
  Ge  Ge1  1  0.73353772  0.95513385  0.54704620  1
  F  F2  1  0.07867317  0.80600109  0.49750823  1
  In  In3  1  0.25761374  0.66253790  0.51500017  1
  Zr  Zr4  1  0.81460828  0.37013837  0.51705857  1
  Mn  Mn5  1  0.42249046  0.16014981  0.43897787  1
  I  I6  1  0.70706470  0.78993773  0.47367350  1
