# generated using pymatgen
data_Ag(Te5Au2)2
_symmetry_space_group_name_H-M   'P 1'
_cell_length_a   7.38382012
_cell_length_b   4.28697200
_cell_length_c   25.70301798
_cell_angle_alpha   90.00000000
_cell_angle_beta   90.86514730
_cell_angle_gamma   90.00000000
_symmetry_Int_Tables_number   1
_chemical_formula_structural   Ag(Te5Au2)2
_chemical_formula_sum   'Ag2 Te20 Au8'
_cell_volume   813.51649590
_cell_formula_units_Z   2
loop_
 _symmetry_equiv_pos_site_id
 _symmetry_equiv_pos_as_xyz
  1  'x, y, z'
loop_
 _atom_site_type_symbol
 _atom_site_label
 _atom_site_symmetry_multiplicity
 _atom_site_fract_x
 _atom_site_fract_y
 _atom_site_fract_z
 _atom_site_occupancy
  Ag  Ag0  1  0.00000000  0.00000000  0.50000000  1.0
  Ag  Ag1  1  0.50000000  0.50000000  0.50000000  1.0
  Te  Te2  1  0.68673700  0.00000000  0.75774300  1.0
  Te  Te3  1  0.68583000  0.00000000  0.95791600  1.0
  Te  Te4  1  0.68627900  0.00000000  0.15770100  1.0
  Te  Te5  1  0.68742300  0.00000000  0.35834500  1.0
  Te  Te6  1  0.68528400  0.00000000  0.55909100  1.0
  Te  Te7  1  0.31372100  0.00000000  0.84229900  1.0
  Te  Te8  1  0.31417000  0.00000000  0.04208400  1.0
  Te  Te9  1  0.31326300  0.00000000  0.24225700  1.0
  Te  Te10  1  0.31471600  0.00000000  0.44090900  1.0
  Te  Te11  1  0.31257700  0.00000000  0.64165500  1.0
  Te  Te12  1  0.18673700  0.50000000  0.75774300  1.0
  Te  Te13  1  0.18583000  0.50000000  0.95791600  1.0
  Te  Te14  1  0.18627900  0.50000000  0.15770100  1.0
  Te  Te15  1  0.18742300  0.50000000  0.35834500  1.0
  Te  Te16  1  0.18528400  0.50000000  0.55909100  1.0
  Te  Te17  1  0.81372100  0.50000000  0.84229900  1.0
  Te  Te18  1  0.81417000  0.50000000  0.04208400  1.0
  Te  Te19  1  0.81326300  0.50000000  0.24225700  1.0
  Te  Te20  1  0.81471600  0.50000000  0.44090900  1.0
  Te  Te21  1  0.81257700  0.50000000  0.64165500  1.0
  Au  Au22  1  0.99995600  0.00000000  0.70010300  1.0
  Au  Au23  1  0.99986300  0.00000000  0.89991500  1.0
  Au  Au24  1  0.00013700  0.00000000  0.10008500  1.0
  Au  Au25  1  0.00004400  0.00000000  0.29989700  1.0
  Au  Au26  1  0.49995600  0.50000000  0.70010300  1.0
  Au  Au27  1  0.49986300  0.50000000  0.89991500  1.0
  Au  Au28  1  0.50013700  0.50000000  0.10008500  1.0
  Au  Au29  1  0.50004400  0.50000000  0.29989700  1.0
