# generated using pymatgen
data_Ag5Au3S4
_symmetry_space_group_name_H-M   'P 1'
_cell_length_a   4.63564150
_cell_length_b   4.81266722
_cell_length_c   13.62472420
_cell_angle_alpha   91.30770504
_cell_angle_beta   91.02291405
_cell_angle_gamma   110.53370742
_symmetry_Int_Tables_number   1
_chemical_formula_structural   Ag5Au3S4
_chemical_formula_sum   'Ag5 Au3 S4'
_cell_volume   284.47007023
_cell_formula_units_Z   1
loop_
 _symmetry_equiv_pos_site_id
 _symmetry_equiv_pos_as_xyz
  1  'x, y, z'
loop_
 _atom_site_type_symbol
 _atom_site_label
 _atom_site_symmetry_multiplicity
 _atom_site_fract_x
 _atom_site_fract_y
 _atom_site_fract_z
 _atom_site_occupancy
  Ag  Ag0  1  0.07859400  0.69039000  0.24323700  1.0
  Ag  Ag1  1  0.70300900  0.96361900  0.73998500  1.0
  Ag  Ag2  1  0.52405800  0.10679900  0.39614200  1.0
  Ag  Ag3  1  0.34458200  0.72905200  0.01431900  1.0
  Ag  Ag4  1  0.13754200  0.52292000  0.44996500  1.0
  Au  Au5  1  0.22885000  0.22612100  0.13923400  1.0
  Au  Au6  1  0.25887500  0.20340200  0.62036000  1.0
  Au  Au7  1  0.23040400  0.21115400  0.87985300  1.0
  S  S8  1  0.93049600  0.94843000  0.00624900  1.0
  S  S9  1  0.97177100  0.96764000  0.48049000  1.0
  S  S10  1  0.52007500  0.50560800  0.27343500  1.0
  S  S11  1  0.57174400  0.42486500  0.75673100  1.0
