# generated using pymatgen
data_Ag2SeO4
_symmetry_space_group_name_H-M   'P 1'
_cell_length_a   5.81995125
_cell_length_b   11.09373199
_cell_length_c   12.79748937
_cell_angle_alpha   90.00000000
_cell_angle_beta   90.00000000
_cell_angle_gamma   90.00000000
_symmetry_Int_Tables_number   1
_chemical_formula_structural   Ag2SeO4
_chemical_formula_sum   'Ag16 Se8 O32'
_cell_volume   826.26963706
_cell_formula_units_Z   8
loop_
 _symmetry_equiv_pos_site_id
 _symmetry_equiv_pos_as_xyz
  1  'x, y, z'
loop_
 _atom_site_type_symbol
 _atom_site_label
 _atom_site_symmetry_multiplicity
 _atom_site_fract_x
 _atom_site_fract_y
 _atom_site_fract_z
 _atom_site_occupancy
  Ag  Ag0  1  0.50000000  0.69934267  0.00000000  1.0
  Ag  Ag1  1  0.00000000  0.80065733  0.00000000  1.0
  Ag  Ag2  1  0.25000000  0.55065733  0.75000000  1.0
  Ag  Ag3  1  0.25000000  0.94934267  0.75000000  1.0
  Ag  Ag4  1  0.50000000  0.19934267  0.50000000  1.0
  Ag  Ag5  1  0.00000000  0.30065733  0.50000000  1.0
  Ag  Ag6  1  0.25000000  0.05065733  0.25000000  1.0
  Ag  Ag7  1  0.25000000  0.44934267  0.25000000  1.0
  Ag  Ag8  1  0.00000000  0.69934267  0.50000000  1.0
  Ag  Ag9  1  0.50000000  0.80065733  0.50000000  1.0
  Ag  Ag10  1  0.75000000  0.55065733  0.25000000  1.0
  Ag  Ag11  1  0.75000000  0.94934267  0.25000000  1.0
  Ag  Ag12  1  0.00000000  0.19934267  0.00000000  1.0
  Ag  Ag13  1  0.50000000  0.30065733  0.00000000  1.0
  Ag  Ag14  1  0.75000000  0.05065733  0.75000000  1.0
  Ag  Ag15  1  0.75000000  0.44934267  0.75000000  1.0
  Se  Se16  1  0.50000000  0.00000000  0.00000000  1.0
  Se  Se17  1  0.75000000  0.75000000  0.75000000  1.0
  Se  Se18  1  0.50000000  0.50000000  0.50000000  1.0
  Se  Se19  1  0.75000000  0.25000000  0.25000000  1.0
  Se  Se20  1  0.00000000  0.00000000  0.50000000  1.0
  Se  Se21  1  0.25000000  0.75000000  0.25000000  1.0
  Se  Se22  1  0.00000000  0.50000000  0.00000000  1.0
  Se  Se23  1  0.25000000  0.25000000  0.75000000  1.0
  O  O24  1  0.16027403  0.58959342  0.92534669  1.0
  O  O25  1  0.16027403  0.91040658  0.57465331  1.0
  O  O26  1  0.33972597  0.58959342  0.57465331  1.0
  O  O27  1  0.33972597  0.91040658  0.92534669  1.0
  O  O28  1  0.58972597  0.66040658  0.82465331  1.0
  O  O29  1  0.58972597  0.83959342  0.67534669  1.0
  O  O30  1  0.91027403  0.83959342  0.82465331  1.0
  O  O31  1  0.91027403  0.66040658  0.67534669  1.0
  O  O32  1  0.16027403  0.08959342  0.42534669  1.0
  O  O33  1  0.16027403  0.41040658  0.07465331  1.0
  O  O34  1  0.33972597  0.08959342  0.07465331  1.0
  O  O35  1  0.33972597  0.41040658  0.42534669  1.0
  O  O36  1  0.58972597  0.16040658  0.32465331  1.0
  O  O37  1  0.58972597  0.33959342  0.17534669  1.0
  O  O38  1  0.91027403  0.33959342  0.32465331  1.0
  O  O39  1  0.91027403  0.16040658  0.17534669  1.0
  O  O40  1  0.66027403  0.58959342  0.42534669  1.0
  O  O41  1  0.66027403  0.91040658  0.07465331  1.0
  O  O42  1  0.83972597  0.58959342  0.07465331  1.0
  O  O43  1  0.83972597  0.91040658  0.42534669  1.0
  O  O44  1  0.08972597  0.66040658  0.32465331  1.0
  O  O45  1  0.08972597  0.83959342  0.17534669  1.0
  O  O46  1  0.41027403  0.83959342  0.32465331  1.0
  O  O47  1  0.41027403  0.66040658  0.17534669  1.0
  O  O48  1  0.66027403  0.08959342  0.92534669  1.0
  O  O49  1  0.66027403  0.41040658  0.57465331  1.0
  O  O50  1  0.83972597  0.08959342  0.57465331  1.0
  O  O51  1  0.83972597  0.41040658  0.92534669  1.0
  O  O52  1  0.08972597  0.16040658  0.82465331  1.0
  O  O53  1  0.08972597  0.33959342  0.67534669  1.0
  O  O54  1  0.41027403  0.33959342  0.82465331  1.0
  O  O55  1  0.41027403  0.16040658  0.67534669  1.0
