# generated using pymatgen
data_Ag2SnSe3
_symmetry_space_group_name_H-M   'P 1'
_cell_length_a   7.45888947
_cell_length_b   12.78900669
_cell_length_c   28.12003028
_cell_angle_alpha   90.00000000
_cell_angle_beta   95.82464820
_cell_angle_gamma   90.00000000
_symmetry_Int_Tables_number   1
_chemical_formula_structural   Ag2SnSe3
_chemical_formula_sum   'Ag32 Sn16 Se48'
_cell_volume   2668.57099799
_cell_formula_units_Z   16
loop_
 _symmetry_equiv_pos_site_id
 _symmetry_equiv_pos_as_xyz
  1  'x, y, z'
loop_
 _atom_site_type_symbol
 _atom_site_label
 _atom_site_symmetry_multiplicity
 _atom_site_fract_x
 _atom_site_fract_y
 _atom_site_fract_z
 _atom_site_occupancy
  Ag  Ag0  1  0.76689428  0.07364711  0.01213065  1.0
  Ag  Ag1  1  0.76689428  0.92635289  0.51213065  1.0
  Ag  Ag2  1  0.27613778  0.25159124  0.01641609  1.0
  Ag  Ag3  1  0.27613778  0.74840876  0.51641609  1.0
  Ag  Ag4  1  0.62600878  0.25513358  0.13912988  1.0
  Ag  Ag5  1  0.62600878  0.74486642  0.63912988  1.0
  Ag  Ag6  1  0.13943082  0.08278657  0.13974654  1.0
  Ag  Ag7  1  0.13943082  0.91721343  0.63974654  1.0
  Ag  Ag8  1  0.49909203  0.40251877  0.26202619  1.0
  Ag  Ag9  1  0.49909203  0.59748123  0.76202619  1.0
  Ag  Ag10  1  0.52121674  0.07888794  0.26683434  1.0
  Ag  Ag11  1  0.52121674  0.92111206  0.76683434  1.0
  Ag  Ag12  1  0.38220385  0.25547239  0.39275909  1.0
  Ag  Ag13  1  0.38220385  0.74452761  0.89275909  1.0
  Ag  Ag14  1  0.38227033  0.91419059  0.38755231  1.0
  Ag  Ag15  1  0.38227033  0.08580941  0.88755231  1.0
  Ag  Ag16  1  0.26689428  0.57364711  0.01213065  1.0
  Ag  Ag17  1  0.26689428  0.42635289  0.51213065  1.0
  Ag  Ag18  1  0.77613778  0.75159124  0.01641609  1.0
  Ag  Ag19  1  0.77613778  0.24840876  0.51641609  1.0
  Ag  Ag20  1  0.12600878  0.75513358  0.13912988  1.0
  Ag  Ag21  1  0.12600878  0.24486642  0.63912988  1.0
  Ag  Ag22  1  0.63943082  0.58278657  0.13974654  1.0
  Ag  Ag23  1  0.63943082  0.41721343  0.63974654  1.0
  Ag  Ag24  1  0.99909203  0.90251877  0.26202619  1.0
  Ag  Ag25  1  0.99909203  0.09748123  0.76202619  1.0
  Ag  Ag26  1  0.02121674  0.57888794  0.26683434  1.0
  Ag  Ag27  1  0.02121674  0.42111206  0.76683434  1.0
  Ag  Ag28  1  0.88220385  0.75547239  0.39275909  1.0
  Ag  Ag29  1  0.88220385  0.24452761  0.89275909  1.0
  Ag  Ag30  1  0.88227033  0.41419059  0.38755231  1.0
  Ag  Ag31  1  0.88227033  0.58580941  0.88755231  1.0
  Sn  Sn32  1  0.24450670  0.91629974  0.02013496  1.0
  Sn  Sn33  1  0.24450670  0.08370026  0.52013496  1.0
  Sn  Sn34  1  0.62765307  0.92345444  0.14487283  1.0
  Sn  Sn35  1  0.62765307  0.07654556  0.64487283  1.0
  Sn  Sn36  1  0.51939775  0.75745975  0.26975970  1.0
  Sn  Sn37  1  0.51939775  0.24254025  0.76975970  1.0
  Sn  Sn38  1  0.88094000  0.09087124  0.39405826  1.0
  Sn  Sn39  1  0.88094000  0.90912876  0.89405826  1.0
  Sn  Sn40  1  0.74450670  0.41629974  0.02013496  1.0
  Sn  Sn41  1  0.74450670  0.58370026  0.52013496  1.0
  Sn  Sn42  1  0.12765307  0.42345444  0.14487283  1.0
  Sn  Sn43  1  0.12765307  0.57654556  0.64487283  1.0
  Sn  Sn44  1  0.01939775  0.25745975  0.26975970  1.0
  Sn  Sn45  1  0.01939775  0.74254025  0.76975970  1.0
  Sn  Sn46  1  0.38094000  0.59087124  0.39405826  1.0
  Sn  Sn47  1  0.38094000  0.40912876  0.89405826  1.0
  Se  Se48  1  0.22830956  0.08365380  0.42521613  1.0
  Se  Se49  1  0.22830956  0.91634620  0.92521613  1.0
  Se  Se50  1  0.59296066  0.91350324  0.05000599  1.0
  Se  Se51  1  0.59296066  0.08649676  0.55000599  1.0
  Se  Se52  1  0.87012835  0.08395594  0.29939194  1.0
  Se  Se53  1  0.87012835  0.91604406  0.79939194  1.0
  Se  Se54  1  0.34930557  0.24257780  0.29882587  1.0
  Se  Se55  1  0.34930557  0.75742220  0.79882587  1.0
  Se  Se56  1  0.34559645  0.91453252  0.29378331  1.0
  Se  Se57  1  0.34559645  0.08546748  0.79378331  1.0
  Se  Se58  1  0.47659469  0.75083409  0.17455672  1.0
  Se  Se59  1  0.47659469  0.24916591  0.67455672  1.0
  Se  Se60  1  0.46248045  0.42051097  0.16938158  1.0
  Se  Se61  1  0.46248045  0.57948903  0.66938158  1.0
  Se  Se62  1  0.61879178  0.24490020  0.04601693  1.0
  Se  Se63  1  0.61879178  0.75509980  0.54601693  1.0
  Se  Se64  1  0.72797577  0.25150342  0.42253346  1.0
  Se  Se65  1  0.72797577  0.74849658  0.92253346  1.0
  Se  Se66  1  0.48050946  0.08642597  0.17278168  1.0
  Se  Se67  1  0.48050946  0.91357403  0.67278168  1.0
  Se  Se68  1  0.10719714  0.08446221  0.04584362  1.0
  Se  Se69  1  0.10719714  0.91553779  0.54584362  1.0
  Se  Se70  1  0.72659592  0.92700107  0.41887192  1.0
  Se  Se71  1  0.72659592  0.07299893  0.91887192  1.0
  Se  Se72  1  0.72830956  0.58365380  0.42521613  1.0
  Se  Se73  1  0.72830956  0.41634620  0.92521613  1.0
  Se  Se74  1  0.09296066  0.41350324  0.05000599  1.0
  Se  Se75  1  0.09296066  0.58649676  0.55000599  1.0
  Se  Se76  1  0.37012835  0.58395594  0.29939194  1.0
  Se  Se77  1  0.37012835  0.41604406  0.79939194  1.0
  Se  Se78  1  0.84930557  0.74257780  0.29882587  1.0
  Se  Se79  1  0.84930557  0.25742220  0.79882587  1.0
  Se  Se80  1  0.84559645  0.41453252  0.29378331  1.0
  Se  Se81  1  0.84559645  0.58546748  0.79378331  1.0
  Se  Se82  1  0.97659469  0.25083409  0.17455672  1.0
  Se  Se83  1  0.97659469  0.74916591  0.67455672  1.0
  Se  Se84  1  0.96248045  0.92051097  0.16938158  1.0
  Se  Se85  1  0.96248045  0.07948903  0.66938158  1.0
  Se  Se86  1  0.11879178  0.74490020  0.04601693  1.0
  Se  Se87  1  0.11879178  0.25509980  0.54601693  1.0
  Se  Se88  1  0.22797577  0.75150342  0.42253346  1.0
  Se  Se89  1  0.22797577  0.24849658  0.92253346  1.0
  Se  Se90  1  0.98050946  0.58642597  0.17278168  1.0
  Se  Se91  1  0.98050946  0.41357403  0.67278168  1.0
  Se  Se92  1  0.60719714  0.58446221  0.04584362  1.0
  Se  Se93  1  0.60719714  0.41553779  0.54584362  1.0
  Se  Se94  1  0.22659592  0.42700107  0.41887192  1.0
  Se  Se95  1  0.22659592  0.57299893  0.91887192  1.0
