# generated using pymatgen
data_Ag2BiSbSe4
_symmetry_space_group_name_H-M   'P 1'
_cell_length_a   5.83225400
_cell_length_b   5.83225400
_cell_length_c   11.72673400
_cell_angle_alpha   90.00000000
_cell_angle_beta   90.00000000
_cell_angle_gamma   90.00000000
_symmetry_Int_Tables_number   1
_chemical_formula_structural   Ag2BiSbSe4
_chemical_formula_sum   'Ag4 Bi2 Sb2 Se8'
_cell_volume   398.88704663
_cell_formula_units_Z   2
loop_
 _symmetry_equiv_pos_site_id
 _symmetry_equiv_pos_as_xyz
  1  'x, y, z'
loop_
 _atom_site_type_symbol
 _atom_site_label
 _atom_site_symmetry_multiplicity
 _atom_site_fract_x
 _atom_site_fract_y
 _atom_site_fract_z
 _atom_site_occupancy
  Ag  Ag0  1  0.50000000  0.50000000  0.00000000  1.0
  Ag  Ag1  1  0.50000000  0.00000000  0.25000000  1.0
  Ag  Ag2  1  0.00000000  0.00000000  0.50000000  1.0
  Ag  Ag3  1  0.00000000  0.50000000  0.75000000  1.0
  Bi  Bi4  1  0.00000000  0.50000000  0.25000000  1.0
  Bi  Bi5  1  0.50000000  0.00000000  0.75000000  1.0
  Sb  Sb6  1  0.00000000  0.00000000  0.00000000  1.0
  Sb  Sb7  1  0.50000000  0.50000000  0.50000000  1.0
  Se  Se8  1  0.50000000  0.00000000  0.00210100  1.0
  Se  Se9  1  0.50000000  0.50000000  0.25505600  1.0
  Se  Se10  1  0.50000000  0.00000000  0.49789900  1.0
  Se  Se11  1  0.00000000  0.00000000  0.24494400  1.0
  Se  Se12  1  0.00000000  0.50000000  0.50210100  1.0
  Se  Se13  1  0.00000000  0.00000000  0.75505600  1.0
  Se  Se14  1  0.00000000  0.50000000  0.99789900  1.0
  Se  Se15  1  0.50000000  0.50000000  0.74494400  1.0
