# generated using pymatgen
data_Ac
_symmetry_space_group_name_H-M   'P 1'
_cell_length_a   4.04686284
_cell_length_b   4.04686284
_cell_length_c   29.36780861
_cell_angle_alpha   90.00000000
_cell_angle_beta   90.00000000
_cell_angle_gamma   120.00000000
_symmetry_Int_Tables_number   1
_chemical_formula_structural   Ac
_chemical_formula_sum   Ac9
_cell_volume   416.52314908
_cell_formula_units_Z   9
loop_
 _symmetry_equiv_pos_site_id
 _symmetry_equiv_pos_as_xyz
  1  'x, y, z'
loop_
 _atom_site_type_symbol
 _atom_site_label
 _atom_site_symmetry_multiplicity
 _atom_site_fract_x
 _atom_site_fract_y
 _atom_site_fract_z
 _atom_site_occupancy
  Ac  Ac0  1  0.00000000  0.00000000  0.00000000  1.0
  Ac  Ac1  1  0.66666667  0.33333333  0.11069321  1.0
  Ac  Ac2  1  0.00000000  0.00000000  0.22264013  1.0
  Ac  Ac3  1  0.66666667  0.33333333  0.33333333  1.0
  Ac  Ac4  1  0.33333333  0.66666667  0.44402654  1.0
  Ac  Ac5  1  0.66666667  0.33333333  0.55597346  1.0
  Ac  Ac6  1  0.33333333  0.66666667  0.66666667  1.0
  Ac  Ac7  1  0.00000000  0.00000000  0.77735987  1.0
  Ac  Ac8  1  0.33333333  0.66666667  0.88930679  1.0
