# generated using pymatgen
data_Ag2CO3
_symmetry_space_group_name_H-M   'P 1'
_cell_length_a   6.79504600
_cell_length_b   9.17750400
_cell_length_c   15.89761001
_cell_angle_alpha   90.00000000
_cell_angle_beta   90.00000000
_cell_angle_gamma   90.00000000
_symmetry_Int_Tables_number   1
_chemical_formula_structural   Ag2CO3
_chemical_formula_sum   'Ag24 C12 O36'
_cell_volume   991.39978983
_cell_formula_units_Z   12
loop_
 _symmetry_equiv_pos_site_id
 _symmetry_equiv_pos_as_xyz
  1  'x, y, z'
loop_
 _atom_site_type_symbol
 _atom_site_label
 _atom_site_symmetry_multiplicity
 _atom_site_fract_x
 _atom_site_fract_y
 _atom_site_fract_z
 _atom_site_occupancy
  Ag  Ag0  1  0.49975050  0.41310250  0.83677500  1.0
  Ag  Ag1  1  0.00024950  0.41310250  0.83677500  1.0
  Ag  Ag2  1  0.75000000  0.56066500  0.68229250  1.0
  Ag  Ag3  1  0.25000000  0.57107400  0.68585550  1.0
  Ag  Ag4  1  0.75000000  0.61820200  0.99654550  1.0
  Ag  Ag5  1  0.75000000  0.11820200  0.50345450  1.0
  Ag  Ag6  1  0.49975050  0.91310250  0.66322500  1.0
  Ag  Ag7  1  0.00024950  0.91310250  0.66322500  1.0
  Ag  Ag8  1  0.00000000  0.92368200  0.00000000  1.0
  Ag  Ag9  1  0.50000000  0.92368200  0.00000000  1.0
  Ag  Ag10  1  0.75000000  0.06066500  0.81770750  1.0
  Ag  Ag11  1  0.25000000  0.07107400  0.81414450  1.0
  Ag  Ag12  1  0.99975050  0.91310250  0.33677500  1.0
  Ag  Ag13  1  0.50024950  0.91310250  0.33677500  1.0
  Ag  Ag14  1  0.25000000  0.06066500  0.18229250  1.0
  Ag  Ag15  1  0.75000000  0.07107400  0.18585550  1.0
  Ag  Ag16  1  0.25000000  0.11820200  0.49654550  1.0
  Ag  Ag17  1  0.25000000  0.61820200  0.00345450  1.0
  Ag  Ag18  1  0.99975050  0.41310250  0.16322500  1.0
  Ag  Ag19  1  0.50024950  0.41310250  0.16322500  1.0
  Ag  Ag20  1  0.50000000  0.42368200  0.50000000  1.0
  Ag  Ag21  1  0.00000000  0.42368200  0.50000000  1.0
  Ag  Ag22  1  0.25000000  0.56066500  0.31770750  1.0
  Ag  Ag23  1  0.75000000  0.57107400  0.31414450  1.0
  C  C24  1  0.00043200  0.24994100  0.66658850  1.0
  C  C25  1  0.49956800  0.24994100  0.66658850  1.0
  C  C26  1  0.00043200  0.74994100  0.83341150  1.0
  C  C27  1  0.49956800  0.74994100  0.83341150  1.0
  C  C28  1  0.75000000  0.25005300  0.99996850  1.0
  C  C29  1  0.75000000  0.75005300  0.50003150  1.0
  C  C30  1  0.50043200  0.74994100  0.16658850  1.0
  C  C31  1  0.99956800  0.74994100  0.16658850  1.0
  C  C32  1  0.50043200  0.24994100  0.33341150  1.0
  C  C33  1  0.99956800  0.24994100  0.33341150  1.0
  C  C34  1  0.25000000  0.75005300  0.49996850  1.0
  C  C35  1  0.25000000  0.25005300  0.00003150  1.0
  O  O36  1  0.25000000  0.86807000  0.54576150  1.0
  O  O37  1  0.00183050  0.14261950  0.61335200  1.0
  O  O38  1  0.49816950  0.14261950  0.61335200  1.0
  O  O39  1  0.50183950  0.22373450  0.74687700  1.0
  O  O40  1  0.99816050  0.22373450  0.74687700  1.0
  O  O41  1  0.75000000  0.25977200  0.91806550  1.0
  O  O42  1  0.25000000  0.36807000  0.95423850  1.0
  O  O43  1  0.00148250  0.38347850  0.63957300  1.0
  O  O44  1  0.49851750  0.38347850  0.63957300  1.0
  O  O45  1  0.25000000  0.62235050  0.53606400  1.0
  O  O46  1  0.49816950  0.64261950  0.88664800  1.0
  O  O47  1  0.00183050  0.64261950  0.88664800  1.0
  O  O48  1  0.50183950  0.72373450  0.75312300  1.0
  O  O49  1  0.99816050  0.72373450  0.75312300  1.0
  O  O50  1  0.75000000  0.75977200  0.58193450  1.0
  O  O51  1  0.49851750  0.88347850  0.86042700  1.0
  O  O52  1  0.00148250  0.88347850  0.86042700  1.0
  O  O53  1  0.25000000  0.12235050  0.96393600  1.0
  O  O54  1  0.75000000  0.36807000  0.04576150  1.0
  O  O55  1  0.50183050  0.64261950  0.11335200  1.0
  O  O56  1  0.99816950  0.64261950  0.11335200  1.0
  O  O57  1  0.00183950  0.72373450  0.24687700  1.0
  O  O58  1  0.49816050  0.72373450  0.24687700  1.0
  O  O59  1  0.25000000  0.75977200  0.41806550  1.0
  O  O60  1  0.75000000  0.86807000  0.45423850  1.0
  O  O61  1  0.50148250  0.88347850  0.13957300  1.0
  O  O62  1  0.99851750  0.88347850  0.13957300  1.0
  O  O63  1  0.75000000  0.12235050  0.03606400  1.0
  O  O64  1  0.99816950  0.14261950  0.38664800  1.0
  O  O65  1  0.50183050  0.14261950  0.38664800  1.0
  O  O66  1  0.00183950  0.22373450  0.25312300  1.0
  O  O67  1  0.49816050  0.22373450  0.25312300  1.0
  O  O68  1  0.25000000  0.25977200  0.08193450  1.0
  O  O69  1  0.99851750  0.38347850  0.36042700  1.0
  O  O70  1  0.50148250  0.38347850  0.36042700  1.0
  O  O71  1  0.75000000  0.62235050  0.46393600  1.0
