# generated using pymatgen
data_Ag2S
_symmetry_space_group_name_H-M   'P 1'
_cell_length_a   4.21557378
_cell_length_b   7.40202060
_cell_length_c   8.46712491
_cell_angle_alpha   90.00000000
_cell_angle_beta   111.65598214
_cell_angle_gamma   90.00000000
_symmetry_Int_Tables_number   1
_chemical_formula_structural   Ag2S
_chemical_formula_sum   'Ag8 S4'
_cell_volume   245.55753352
_cell_formula_units_Z   4
loop_
 _symmetry_equiv_pos_site_id
 _symmetry_equiv_pos_as_xyz
  1  'x, y, z'
loop_
 _atom_site_type_symbol
 _atom_site_label
 _atom_site_symmetry_multiplicity
 _atom_site_fract_x
 _atom_site_fract_y
 _atom_site_fract_z
 _atom_site_occupancy
  Ag  Ag0  1  0.50038924  0.49653242  0.24984120  1.0
  Ag  Ag1  1  0.49961076  0.50346758  0.75015880  1.0
  Ag  Ag2  1  0.88960776  0.75223362  0.55646098  1.0
  Ag  Ag3  1  0.49961076  0.99653242  0.25015880  1.0
  Ag  Ag4  1  0.50038924  0.00346758  0.74984120  1.0
  Ag  Ag5  1  0.11039224  0.24776638  0.44353902  1.0
  Ag  Ag6  1  0.88960776  0.74776638  0.05646098  1.0
  Ag  Ag7  1  0.11039224  0.25223362  0.94353902  1.0
  S  S8  1  0.27847079  0.75368500  0.86121278  1.0
  S  S9  1  0.72152921  0.25368500  0.63878722  1.0
  S  S10  1  0.72152921  0.24631500  0.13878722  1.0
  S  S11  1  0.27847079  0.74631500  0.36121278  1.0
