# generated using pymatgen
data_Ac2S3
_symmetry_space_group_name_H-M   'P 1'
_cell_length_a   9.08423272
_cell_length_b   9.08423272
_cell_length_c   27.10526767
_cell_angle_alpha   90.00000000
_cell_angle_beta   90.00000000
_cell_angle_gamma   90.00000000
_symmetry_Int_Tables_number   1
_chemical_formula_structural   Ac2S3
_chemical_formula_sum   'Ac32 S48'
_cell_volume   2236.81570484
_cell_formula_units_Z   16
loop_
 _symmetry_equiv_pos_site_id
 _symmetry_equiv_pos_as_xyz
  1  'x, y, z'
loop_
 _atom_site_type_symbol
 _atom_site_label
 _atom_site_symmetry_multiplicity
 _atom_site_fract_x
 _atom_site_fract_y
 _atom_site_fract_z
 _atom_site_occupancy
  Ac  Ac0  1  0.25968676  0.14273046  0.03828864  1.0
  Ac  Ac1  1  0.00000000  0.50000000  0.08553146  1.0
  Ac  Ac2  1  0.62020505  0.25000000  0.12500000  1.0
  Ac  Ac3  1  0.74031324  0.64273046  0.21171136  1.0
  Ac  Ac4  1  0.00000000  0.00000000  0.16446854  1.0
  Ac  Ac5  1  0.25968676  0.35726954  0.21171136  1.0
  Ac  Ac6  1  0.37979495  0.75000000  0.12500000  1.0
  Ac  Ac7  1  0.14273046  0.75968676  0.28828864  1.0
  Ac  Ac8  1  0.50000000  0.50000000  0.33553146  1.0
  Ac  Ac9  1  0.25000000  0.12020505  0.37500000  1.0
  Ac  Ac10  1  0.85726954  0.24031324  0.28828864  1.0
  Ac  Ac11  1  0.75000000  0.87979495  0.37500000  1.0
  Ac  Ac12  1  0.00000000  0.50000000  0.41446854  1.0
  Ac  Ac13  1  0.64273046  0.24031324  0.46171136  1.0
  Ac  Ac14  1  0.35726954  0.75968676  0.46171136  1.0
  Ac  Ac15  1  0.74031324  0.85726954  0.03828864  1.0
  Ac  Ac16  1  0.75968676  0.64273046  0.53828864  1.0
  Ac  Ac17  1  0.50000000  0.00000000  0.58553146  1.0
  Ac  Ac18  1  0.12020505  0.75000000  0.62500000  1.0
  Ac  Ac19  1  0.24031324  0.14273046  0.71171136  1.0
  Ac  Ac20  1  0.50000000  0.50000000  0.66446854  1.0
  Ac  Ac21  1  0.75968676  0.85726954  0.71171136  1.0
  Ac  Ac22  1  0.87979495  0.25000000  0.62500000  1.0
  Ac  Ac23  1  0.64273046  0.25968676  0.78828864  1.0
  Ac  Ac24  1  0.00000000  0.00000000  0.83553146  1.0
  Ac  Ac25  1  0.75000000  0.62020505  0.87500000  1.0
  Ac  Ac26  1  0.35726954  0.74031324  0.78828864  1.0
  Ac  Ac27  1  0.25000000  0.37979495  0.87500000  1.0
  Ac  Ac28  1  0.50000000  0.00000000  0.91446854  1.0
  Ac  Ac29  1  0.14273046  0.74031324  0.96171136  1.0
  Ac  Ac30  1  0.85726954  0.25968676  0.96171136  1.0
  Ac  Ac31  1  0.24031324  0.35726954  0.53828864  1.0
  S  S32  1  0.07034610  0.82316720  0.06684138  1.0
  S  S33  1  0.31703041  0.42724584  0.10586074  1.0
  S  S34  1  0.92965390  0.17683280  0.06684138  1.0
  S  S35  1  0.92965390  0.32316720  0.18315862  1.0
  S  S36  1  0.07034610  0.67683280  0.18315862  1.0
  S  S37  1  0.68296959  0.57275416  0.10586074  1.0
  S  S38  1  0.58153882  0.33434834  0.23323754  1.0
  S  S39  1  0.68296959  0.92724584  0.14413926  1.0
  S  S40  1  0.83434834  0.91846118  0.26676246  1.0
  S  S41  1  0.41846118  0.66565166  0.23323754  1.0
  S  S42  1  0.31703041  0.07275416  0.14413926  1.0
  S  S43  1  0.42724584  0.81703041  0.35586074  1.0
  S  S44  1  0.57275416  0.18296959  0.35586074  1.0
  S  S45  1  0.16565166  0.08153882  0.26676246  1.0
  S  S46  1  0.07275416  0.81703041  0.39413926  1.0
  S  S47  1  0.17683280  0.42965390  0.31684138  1.0
  S  S48  1  0.32316720  0.42965390  0.43315862  1.0
  S  S49  1  0.92724584  0.18296959  0.39413926  1.0
  S  S50  1  0.82316720  0.57034610  0.31684138  1.0
  S  S51  1  0.41846118  0.83434834  0.01676246  1.0
  S  S52  1  0.58153882  0.16565166  0.01676246  1.0
  S  S53  1  0.67683280  0.57034610  0.43315862  1.0
  S  S54  1  0.66565166  0.91846118  0.48323754  1.0
  S  S55  1  0.33434834  0.08153882  0.48323754  1.0
  S  S56  1  0.57034610  0.32316720  0.56684138  1.0
  S  S57  1  0.81703041  0.92724584  0.60586074  1.0
  S  S58  1  0.42965390  0.67683280  0.56684138  1.0
  S  S59  1  0.42965390  0.82316720  0.68315862  1.0
  S  S60  1  0.57034610  0.17683280  0.68315862  1.0
  S  S61  1  0.18296959  0.07275416  0.60586074  1.0
  S  S62  1  0.08153882  0.83434834  0.73323754  1.0
  S  S63  1  0.18296959  0.42724584  0.64413926  1.0
  S  S64  1  0.33434834  0.41846118  0.76676246  1.0
  S  S65  1  0.91846118  0.16565166  0.73323754  1.0
  S  S66  1  0.81703041  0.57275416  0.64413926  1.0
  S  S67  1  0.92724584  0.31703041  0.85586074  1.0
  S  S68  1  0.07275416  0.68296959  0.85586074  1.0
  S  S69  1  0.66565166  0.58153882  0.76676246  1.0
  S  S70  1  0.57275416  0.31703041  0.89413926  1.0
  S  S71  1  0.67683280  0.92965390  0.81684138  1.0
  S  S72  1  0.82316720  0.92965390  0.93315862  1.0
  S  S73  1  0.42724584  0.68296959  0.89413926  1.0
  S  S74  1  0.32316720  0.07034610  0.81684138  1.0
  S  S75  1  0.91846118  0.33434834  0.51676246  1.0
  S  S76  1  0.08153882  0.66565166  0.51676246  1.0
  S  S77  1  0.17683280  0.07034610  0.93315862  1.0
  S  S78  1  0.16565166  0.41846118  0.98323754  1.0
  S  S79  1  0.83434834  0.58153882  0.98323754  1.0
