# generated using pymatgen
data_Ag2B8O13
_symmetry_space_group_name_H-M   'P 1'
_cell_length_a   6.55518475
_cell_length_b   8.69355078
_cell_length_c   17.48214490
_cell_angle_alpha   90.00000000
_cell_angle_beta   90.55822418
_cell_angle_gamma   90.00000000
_symmetry_Int_Tables_number   1
_chemical_formula_structural   Ag2B8O13
_chemical_formula_sum   'Ag8 B32 O52'
_cell_volume   996.22224362
_cell_formula_units_Z   4
loop_
 _symmetry_equiv_pos_site_id
 _symmetry_equiv_pos_as_xyz
  1  'x, y, z'
loop_
 _atom_site_type_symbol
 _atom_site_label
 _atom_site_symmetry_multiplicity
 _atom_site_fract_x
 _atom_site_fract_y
 _atom_site_fract_z
 _atom_site_occupancy
  Ag  Ag0  1  0.06950641  0.97995090  0.61634254  1.0
  Ag  Ag1  1  0.52938204  0.05657629  0.90423772  1.0
  Ag  Ag2  1  0.52938204  0.44342371  0.40423772  1.0
  Ag  Ag3  1  0.93049359  0.47995090  0.88365746  1.0
  Ag  Ag4  1  0.06950641  0.52004910  0.11634254  1.0
  Ag  Ag5  1  0.47061796  0.94342371  0.09576228  1.0
  Ag  Ag6  1  0.93049359  0.02004910  0.38365746  1.0
  Ag  Ag7  1  0.47061796  0.55657629  0.59576228  1.0
  B  B8  1  0.97012464  0.82158230  0.23080021  1.0
  B  B9  1  0.00865648  0.62514494  0.59184149  1.0
  B  B10  1  0.02728453  0.08106088  0.18805521  1.0
  B  B11  1  0.76439236  0.72825527  0.49700049  1.0
  B  B12  1  0.97012464  0.67841770  0.73080021  1.0
  B  B13  1  0.23560764  0.27174473  0.50299951  1.0
  B  B14  1  0.99134352  0.12514494  0.90815851  1.0
  B  B15  1  0.99134352  0.37485506  0.40815851  1.0
  B  B16  1  0.46236852  0.75370773  0.76772869  1.0
  B  B17  1  0.53751112  0.19669668  0.59279792  1.0
  B  B18  1  0.53763148  0.25370773  0.73227131  1.0
  B  B19  1  0.46248888  0.69669668  0.90720208  1.0
  B  B20  1  0.46248888  0.80330332  0.40720208  1.0
  B  B21  1  0.87502993  0.27463213  0.01933962  1.0
  B  B22  1  0.97271547  0.58106088  0.31194479  1.0
  B  B23  1  0.87502993  0.22536787  0.51933962  1.0
  B  B24  1  0.02987536  0.17841770  0.76919979  1.0
  B  B25  1  0.00865648  0.87485506  0.09184149  1.0
  B  B26  1  0.23560764  0.22825527  0.00299951  1.0
  B  B27  1  0.53763148  0.24629227  0.23227131  1.0
  B  B28  1  0.48374418  0.50387446  0.18863385  1.0
  B  B29  1  0.76439236  0.77174473  0.99700049  1.0
  B  B30  1  0.46236852  0.74629227  0.26772869  1.0
  B  B31  1  0.51625582  0.00387446  0.31136615  1.0
  B  B32  1  0.48374418  0.99612554  0.68863385  1.0
  B  B33  1  0.53751112  0.30330332  0.09279792  1.0
  B  B34  1  0.12497007  0.77463213  0.48066038  1.0
  B  B35  1  0.51625582  0.49612554  0.81136615  1.0
  B  B36  1  0.02987536  0.32158230  0.26919979  1.0
  B  B37  1  0.97271547  0.91893912  0.81194479  1.0
  B  B38  1  0.12497007  0.72536787  0.98066038  1.0
  B  B39  1  0.02728453  0.41893912  0.68805521  1.0
  O  O40  1  0.46306101  0.84215280  0.70291629  1.0
  O  O41  1  0.94053337  0.76743379  0.79412501  1.0
  O  O42  1  0.16869206  0.82058087  0.04081228  1.0
  O  O43  1  0.46335570  0.59606203  0.75244300  1.0
  O  O44  1  0.00384837  0.73185460  0.65977479  1.0
  O  O45  1  0.00384837  0.76814540  0.15977479  1.0
  O  O46  1  0.55122802  0.54910473  0.88294065  1.0
  O  O47  1  0.42618219  0.27103450  0.53170479  1.0
  O  O48  1  0.96501249  0.97930355  0.24467417  1.0
  O  O49  1  0.05963341  0.46935609  0.61646882  1.0
  O  O50  1  0.83130794  0.32058087  0.45918772  1.0
  O  O51  1  0.45895045  0.69332296  0.34012902  1.0
  O  O52  1  0.92017433  0.82306337  0.47113063  1.0
  O  O53  1  0.57381781  0.77103450  0.96829521  1.0
  O  O54  1  0.05963341  0.03064391  0.11646882  1.0
  O  O55  1  0.05946663  0.23256621  0.20587499  1.0
  O  O56  1  0.92017433  0.67693663  0.97113063  1.0
  O  O57  1  0.05946663  0.26743379  0.70587499  1.0
  O  O58  1  0.54104955  0.19332296  0.15987098  1.0
  O  O59  1  0.53693899  0.15784720  0.29708371  1.0
  O  O60  1  0.83130794  0.17941913  0.95918772  1.0
  O  O61  1  0.99615163  0.26814540  0.34022521  1.0
  O  O62  1  0.46306101  0.65784720  0.20291629  1.0
  O  O63  1  0.25317927  0.66673933  0.92927306  1.0
  O  O64  1  0.53664430  0.40393797  0.24755700  1.0
  O  O65  1  0.45895045  0.80667704  0.84012902  1.0
  O  O66  1  0.19244810  0.37068640  0.44418478  1.0
  O  O67  1  0.74682073  0.33326067  0.07072694  1.0
  O  O68  1  0.53664430  0.09606203  0.74755700  1.0
  O  O69  1  0.25317927  0.83326067  0.42927306  1.0
  O  O70  1  0.03498751  0.47930355  0.25532583  1.0
  O  O71  1  0.19244810  0.12931360  0.94418478  1.0
  O  O72  1  0.07982567  0.17693663  0.52886937  1.0
  O  O73  1  0.55122802  0.95089527  0.38294065  1.0
  O  O74  1  0.03498751  0.02069645  0.75532583  1.0
  O  O75  1  0.94036659  0.53064391  0.38353118  1.0
  O  O76  1  0.44877198  0.04910473  0.61705935  1.0
  O  O77  1  0.80755190  0.62931360  0.55581522  1.0
  O  O78  1  0.16869206  0.67941913  0.54081228  1.0
  O  O79  1  0.42618219  0.22896550  0.03170479  1.0
  O  O80  1  0.74682073  0.16673933  0.57072694  1.0
  O  O81  1  0.54104955  0.30667704  0.65987098  1.0
  O  O82  1  0.57381781  0.72896550  0.46829521  1.0
  O  O83  1  0.96501249  0.52069645  0.74467417  1.0
  O  O84  1  0.80755190  0.87068640  0.05581522  1.0
  O  O85  1  0.94036659  0.96935609  0.88353118  1.0
  O  O86  1  0.44877198  0.45089527  0.11705935  1.0
  O  O87  1  0.07982567  0.32306337  0.02886937  1.0
  O  O88  1  0.53693899  0.34215280  0.79708371  1.0
  O  O89  1  0.94053337  0.73256621  0.29412501  1.0
  O  O90  1  0.46335570  0.90393797  0.25244300  1.0
  O  O91  1  0.99615163  0.23185460  0.84022521  1.0
