# generated using pymatgen
data_CaVBiBAsIr3RhBr
_symmetry_space_group_name_H-M   'P 1'
_cell_length_a   19.62262154
_cell_length_b   20.46050072
_cell_length_c   15.00000000
_cell_angle_alpha   90.00000000
_cell_angle_beta   90.00000000
_cell_angle_gamma   90.00000000
_symmetry_Int_Tables_number   1
_chemical_formula_structural   CaVBiBAsIr3RhBr
_chemical_formula_sum   'Ca1 V1 Bi1 B1 As1 Ir3 Rh1 Br1'
_cell_volume   6022.32993023
_cell_formula_units_Z   1
loop_
 _symmetry_equiv_pos_site_id
 _symmetry_equiv_pos_as_xyz
  1  'x, y, z'
loop_
 _atom_site_type_symbol
 _atom_site_label
 _atom_site_symmetry_multiplicity
 _atom_site_fract_x
 _atom_site_fract_y
 _atom_site_fract_z
 _atom_site_occupancy
  Ca  Ca0  1  0.12412130  0.15488568  0.48572050  1
  Bi  Bi1  1  0.00360269  0.06987360  0.55312720  1
  Ir  Ir2  1  0.95658789  0.52837074  0.56352359  1
  B  B3  1  0.17506547  0.98727915  0.48867720  1
  Br  Br4  1  0.93900680  0.02015567  0.45630488  1
  As  As5  1  0.50572998  0.97660484  0.58718606  1
  Ir  Ir6  1  0.03469453  0.14715286  0.48080905  1
  Ir  Ir7  1  0.34513458  0.43062143  0.53023778  1
  V  V8  1  0.40380680  0.03957897  0.41803084  1
  Rh  Rh9  1  0.51224992  0.64547701  0.43638290  1
