# generated using pymatgen
data_HfMgZrBSbHIrPt2AuSe
_symmetry_space_group_name_H-M   'P 1'
_cell_length_a   11.65550327
_cell_length_b   17.19426537
_cell_length_c   15.00000000
_cell_angle_alpha   90.00000000
_cell_angle_beta   90.00000000
_cell_angle_gamma   90.00000000
_symmetry_Int_Tables_number   1
_chemical_formula_structural   HfMgZrBSbHIrPt2AuSe
_chemical_formula_sum   'Hf1 Mg1 Zr1 B1 Sb1 H1 Ir1 Pt2 Au1 Se1'
_cell_volume   3006.11724369
_cell_formula_units_Z   1
loop_
 _symmetry_equiv_pos_site_id
 _symmetry_equiv_pos_as_xyz
  1  'x, y, z'
loop_
 _atom_site_type_symbol
 _atom_site_label
 _atom_site_symmetry_multiplicity
 _atom_site_fract_x
 _atom_site_fract_y
 _atom_site_fract_z
 _atom_site_occupancy
  Hf  Hf0  1  0.84319006  0.89686559  0.45409232  1
  Pt  Pt1  1  0.11813598  0.08515028  0.49532562  1
  Au  Au2  1  0.09291454  0.84786826  0.51584266  1
  Zr  Zr3  1  0.11354268  0.50968114  0.56774062  1
  H  H4  1  0.50434846  0.08616684  0.49548374  1
  B  B5  1  0.80403702  0.05420783  0.48539697  1
  Pt  Pt6  1  0.20306513  0.95055668  0.47336520  1
  Sb  Sb7  1  0.09541530  0.69167662  0.54315968  1
  Ir  Ir8  1  0.33275568  0.16908564  0.51739486  1
  Se  Se9  1  0.94703251  0.62599899  0.47383481  1
  Mg  Mg10  1  0.94556256  0.08274212  0.47836351  1
