# generated using pymatgen
data_HfTaCdInAgBi
_symmetry_space_group_name_H-M   'P 1'
_cell_length_a   9.06768370
_cell_length_b   6.40295076
_cell_length_c   15.00000000
_cell_angle_alpha   90.00000000
_cell_angle_beta   90.00000000
_cell_angle_gamma   90.00000000
_symmetry_Int_Tables_number   1
_chemical_formula_structural   HfTaCdInAgBi
_chemical_formula_sum   'Hf1 Ta1 Cd1 In1 Ag1 Bi1'
_cell_volume   870.89898377
_cell_formula_units_Z   1
loop_
 _symmetry_equiv_pos_site_id
 _symmetry_equiv_pos_as_xyz
  1  'x, y, z'
loop_
 _atom_site_type_symbol
 _atom_site_label
 _atom_site_symmetry_multiplicity
 _atom_site_fract_x
 _atom_site_fract_y
 _atom_site_fract_z
 _atom_site_occupancy
  Cd  Cd0  1  0.21037674  0.10099404  0.48466757  1
  Bi  Bi1  1  0.98602449  0.91255439  0.50926186  1
  Ag  Ag2  1  0.40350521  0.71705250  0.51404400  1
  Hf  Hf3  1  0.62406870  0.18186229  0.54867864  1
  Ta  Ta4  1  0.79404439  0.38759038  0.44978020  1
  In  In5  1  0.98198059  0.69994638  0.49356774  1
