# generated using pymatgen
data_KAlZnCdReSnRuC2Br
_symmetry_space_group_name_H-M   'P 1'
_cell_length_a   13.66358280
_cell_length_b   23.29197311
_cell_length_c   15.00000000
_cell_angle_alpha   90.00000000
_cell_angle_beta   90.00000000
_cell_angle_gamma   90.00000000
_symmetry_Int_Tables_number   1
_chemical_formula_structural   KAlZnCdReSnRuC2Br
_chemical_formula_sum   'K1 Al1 Zn1 Cd1 Re1 Sn1 Ru1 C2 Br1'
_cell_volume   4773.77704892
_cell_formula_units_Z   1
loop_
 _symmetry_equiv_pos_site_id
 _symmetry_equiv_pos_as_xyz
  1  'x, y, z'
loop_
 _atom_site_type_symbol
 _atom_site_label
 _atom_site_symmetry_multiplicity
 _atom_site_fract_x
 _atom_site_fract_y
 _atom_site_fract_z
 _atom_site_occupancy
  Al  Al0  1  0.95199655  0.11358684  0.52562707  1
  Ru  Ru1  1  0.95090377  0.79368134  0.45554610  1
  Sn  Sn2  1  0.88627374  0.59594379  0.58880374  1
  K  K3  1  0.59184568  0.88411450  0.66059092  1
  C  C4  1  0.02147933  0.86956512  0.40479532  1
  Zn  Zn5  1  0.90642741  0.01143283  0.47533600  1
  Re  Re6  1  0.20873503  0.51007730  0.45750364  1
  Cd  Cd7  1  0.02688450  0.98201078  0.47864153  1
  Br  Br8  1  0.00998294  0.07115485  0.55605942  1
  C  C9  1  0.44547118  0.16843256  0.39709626  1
