# generated using pymatgen
data_KCaMgCrSiAsOs2
_symmetry_space_group_name_H-M   'P 1'
_cell_length_a   10.34941006
_cell_length_b   7.27258396
_cell_length_c   15.00000000
_cell_angle_alpha   90.00000000
_cell_angle_beta   90.00000000
_cell_angle_gamma   90.00000000
_symmetry_Int_Tables_number   1
_chemical_formula_structural   KCaMgCrSiAsOs2
_chemical_formula_sum   'K1 Ca1 Mg1 Cr1 Si1 As1 Os2'
_cell_volume   1129.00430388
_cell_formula_units_Z   1
loop_
 _symmetry_equiv_pos_site_id
 _symmetry_equiv_pos_as_xyz
  1  'x, y, z'
loop_
 _atom_site_type_symbol
 _atom_site_label
 _atom_site_symmetry_multiplicity
 _atom_site_fract_x
 _atom_site_fract_y
 _atom_site_fract_z
 _atom_site_occupancy
  Os  Os0  1  0.08511934  0.16984455  0.48539329  1
  As  As1  1  0.59769126  0.52583598  0.47557020  1
  K  K2  1  0.16591850  0.83402603  0.46888485  1
  Mg  Mg3  1  0.91716989  0.88407290  0.51693684  1
  Si  Si4  1  0.78423778  0.81466549  0.54128755  1
  Ca  Ca5  1  0.84739875  0.94107210  0.48549890  1
  Os  Os6  1  0.40444353  0.80084137  0.51881832  1
  Cr  Cr7  1  0.19802091  0.02964158  0.50761005  1
