# generated using pymatgen
data_KMnNbMoOsSeI2
_symmetry_space_group_name_H-M   'P 1'
_cell_length_a   15.13541317
_cell_length_b   22.48048973
_cell_length_c   15.00000000
_cell_angle_alpha   90.00000000
_cell_angle_beta   90.00000000
_cell_angle_gamma   90.00000000
_symmetry_Int_Tables_number   1
_chemical_formula_structural   KMnNbMoOsSeI2
_chemical_formula_sum   'K1 Mn1 Nb1 Mo1 Os1 Se1 I2'
_cell_volume   5103.77250506
_cell_formula_units_Z   1
loop_
 _symmetry_equiv_pos_site_id
 _symmetry_equiv_pos_as_xyz
  1  'x, y, z'
loop_
 _atom_site_type_symbol
 _atom_site_label
 _atom_site_symmetry_multiplicity
 _atom_site_fract_x
 _atom_site_fract_y
 _atom_site_fract_z
 _atom_site_occupancy
  Se  Se0  1  0.98820372  0.52346726  0.48375474  1
  I  I1  1  0.99614596  0.24026758  0.46029021  1
  K  K2  1  0.94719348  0.91952583  0.57790054  1
  Mo  Mo3  1  0.47689972  0.11758618  0.42773609  1
  Nb  Nb4  1  0.18201737  0.03321744  0.46697106  1
  Os  Os5  1  0.34475929  0.77177181  0.49612224  1
  I  I6  1  0.16153584  0.43450123  0.49054685  1
  Mn  Mn7  1  0.90324460  0.95966262  0.59667827  1
