# generated using pymatgen
data_SrMnInRh2PbS
_symmetry_space_group_name_H-M   'P 1'
_cell_length_a   14.10207081
_cell_length_b   15.76116276
_cell_length_c   15.00000000
_cell_angle_alpha   90.00000000
_cell_angle_beta   90.00000000
_cell_angle_gamma   90.00000000
_symmetry_Int_Tables_number   1
_chemical_formula_structural   SrMnInRh2PbS
_chemical_formula_sum   'Sr1 Mn1 In1 Rh2 Pb1 S1'
_cell_volume   3333.97549852
_cell_formula_units_Z   1
loop_
 _symmetry_equiv_pos_site_id
 _symmetry_equiv_pos_as_xyz
  1  'x, y, z'
loop_
 _atom_site_type_symbol
 _atom_site_label
 _atom_site_symmetry_multiplicity
 _atom_site_fract_x
 _atom_site_fract_y
 _atom_site_fract_z
 _atom_site_occupancy
  Mn  Mn0  1  0.45195384  0.81628507  0.49227334  1
  Pb  Pb1  1  0.03647769  0.68832029  0.48075696  1
  S  S2  1  0.99782822  0.79518693  0.47641748  1
  Sr  Sr3  1  0.31013070  0.56142610  0.50179974  1
  Rh  Rh4  1  0.76752493  0.86220486  0.55741297  1
  In  In5  1  0.13437474  0.16586661  0.45831598  1
  Rh  Rh6  1  0.30170984  0.11071018  0.53302352  1
