# generated using pymatgen
data_ZnGeBi2BPdPtRhCBr
_symmetry_space_group_name_H-M   'P 1'
_cell_length_a   8.95693970
_cell_length_b   10.22303581
_cell_length_c   15.00000000
_cell_angle_alpha   90.00000000
_cell_angle_beta   90.00000000
_cell_angle_gamma   90.00000000
_symmetry_Int_Tables_number   1
_chemical_formula_structural   ZnGeBi2BPdPtRhCBr
_chemical_formula_sum   'Zn1 Ge1 Bi2 B1 Pd1 Rh1 Pt1 C1 Br1'
_cell_volume   1373.50672942
_cell_formula_units_Z   1
loop_
 _symmetry_equiv_pos_site_id
 _symmetry_equiv_pos_as_xyz
  1  'x, y, z'
loop_
 _atom_site_type_symbol
 _atom_site_label
 _atom_site_symmetry_multiplicity
 _atom_site_fract_x
 _atom_site_fract_y
 _atom_site_fract_z
 _atom_site_occupancy
  Pd  Pd0  1  0.76584636  0.00868449  0.46264487  1
  Br  Br1  1  0.16256872  0.73676899  0.47902716  1
  C  C2  1  0.47221310  0.83327314  0.47569120  1
  Bi  Bi3  1  0.69550362  0.54113239  0.55960170  1
  B  B4  1  0.83722102  0.99803989  0.48503318  1
  Bi  Bi5  1  0.21938045  0.87368041  0.49787167  1
  Rh  Rh6  1  0.06098480  0.02355051  0.53228995  1
  Ge  Ge7  1  0.75006761  0.11041604  0.50226418  1
  Zn  Zn8  1  0.74011183  0.77357973  0.49460837  1
  Pt  Pt9  1  0.29610259  0.10087439  0.51096772  1
