# generated using pymatgen
data_ZrMnAg2BPS
_symmetry_space_group_name_H-M   'P 1'
_cell_length_a   8.30678177
_cell_length_b   5.63085890
_cell_length_c   15.00000000
_cell_angle_alpha   90.00000000
_cell_angle_beta   90.00000000
_cell_angle_gamma   90.00000000
_symmetry_Int_Tables_number   1
_chemical_formula_structural   ZrMnAg2BPS
_chemical_formula_sum   'Zr1 Mn1 Ag2 B1 P1 S1'
_cell_volume   701.61474057
_cell_formula_units_Z   1
loop_
 _symmetry_equiv_pos_site_id
 _symmetry_equiv_pos_as_xyz
  1  'x, y, z'
loop_
 _atom_site_type_symbol
 _atom_site_label
 _atom_site_symmetry_multiplicity
 _atom_site_fract_x
 _atom_site_fract_y
 _atom_site_fract_z
 _atom_site_occupancy
  S  S0  1  0.07310354  0.11250112  0.53033438  1
  Ag  Ag1  1  0.80532000  0.99155506  0.46461246  1
  B  B2  1  0.46797937  0.02930991  0.51360151  1
  Mn  Mn3  1  0.88532269  0.91955133  0.52106531  1
  Zr  Zr4  1  0.04752765  0.40621282  0.50111990  1
  Ag  Ag5  1  0.01200026  0.76139842  0.45730690  1
  P  P6  1  0.70874650  0.77947130  0.51195954  1
