# generated using pymatgen
data_AcZn2In
_symmetry_space_group_name_H-M   'P 1'
_cell_length_a   7.32699200
_cell_length_b   7.32699200
_cell_length_c   7.32699200
_cell_angle_alpha   90.00000000
_cell_angle_beta   90.00000000
_cell_angle_gamma   90.00000000
_symmetry_Int_Tables_number   1
_chemical_formula_structural   AcZn2In
_chemical_formula_sum   'Ac4 Zn8 In4'
_cell_volume   393.34818635
_cell_formula_units_Z   4
loop_
 _symmetry_equiv_pos_site_id
 _symmetry_equiv_pos_as_xyz
  1  'x, y, z'
loop_
 _atom_site_type_symbol
 _atom_site_label
 _atom_site_symmetry_multiplicity
 _atom_site_fract_x
 _atom_site_fract_y
 _atom_site_fract_z
 _atom_site_occupancy
  Ac  Ac0  1  0.00000000  0.00000000  0.00000000  1.0
  Ac  Ac1  1  0.00000000  0.50000000  0.50000000  1.0
  Ac  Ac2  1  0.50000000  0.00000000  0.50000000  1.0
  Ac  Ac3  1  0.50000000  0.50000000  0.00000000  1.0
  Zn  Zn4  1  0.25000000  0.25000000  0.75000000  1.0
  Zn  Zn5  1  0.25000000  0.75000000  0.75000000  1.0
  Zn  Zn6  1  0.25000000  0.75000000  0.25000000  1.0
  Zn  Zn7  1  0.25000000  0.25000000  0.25000000  1.0
  Zn  Zn8  1  0.75000000  0.25000000  0.25000000  1.0
  Zn  Zn9  1  0.75000000  0.75000000  0.25000000  1.0
  Zn  Zn10  1  0.75000000  0.75000000  0.75000000  1.0
  Zn  Zn11  1  0.75000000  0.25000000  0.75000000  1.0
  In  In12  1  0.50000000  0.00000000  0.00000000  1.0
  In  In13  1  0.50000000  0.50000000  0.50000000  1.0
  In  In14  1  0.00000000  0.00000000  0.50000000  1.0
  In  In15  1  0.00000000  0.50000000  0.00000000  1.0
