# generated using pymatgen
data_Ag2TeO4
_symmetry_space_group_name_H-M   'P 1'
_cell_length_a   6.25915077
_cell_length_b   6.28183427
_cell_length_c   7.31300170
_cell_angle_alpha   103.47173451
_cell_angle_beta   103.96901514
_cell_angle_gamma   116.52320889
_symmetry_Int_Tables_number   1
_chemical_formula_structural   Ag2TeO4
_chemical_formula_sum   'Ag4 Te2 O8'
_cell_volume   229.63802596
_cell_formula_units_Z   2
loop_
 _symmetry_equiv_pos_site_id
 _symmetry_equiv_pos_as_xyz
  1  'x, y, z'
loop_
 _atom_site_type_symbol
 _atom_site_label
 _atom_site_symmetry_multiplicity
 _atom_site_fract_x
 _atom_site_fract_y
 _atom_site_fract_z
 _atom_site_occupancy
  Ag  Ag0  1  0.97919900  0.52898500  0.75046400  1.0
  Ag  Ag1  1  0.28303800  0.22081700  0.74925800  1.0
  Ag  Ag2  1  0.02965700  0.47097300  0.24879900  1.0
  Ag  Ag3  1  0.72129200  0.77357900  0.24869400  1.0
  Te  Te4  1  0.37775300  0.12358700  0.25070400  1.0
  Te  Te5  1  0.62721400  0.87639300  0.74871600  1.0
  O  O6  1  0.72649300  0.25604800  0.40786800  1.0
  O  O7  1  0.35157600  0.30976500  0.09082400  1.0
  O  O8  1  0.18850900  0.15021100  0.40720400  1.0
  O  O9  1  0.24402800  0.77668800  0.09501500  1.0
  O  O10  1  0.76185900  0.22361100  0.90514200  1.0
  O  O11  1  0.81805400  0.85087500  0.59303800  1.0
  O  O12  1  0.64549000  0.68539000  0.90603600  1.0
  O  O13  1  0.28024000  0.74714400  0.59082600  1.0
