# generated using pymatgen
data_Ag3O4
_symmetry_space_group_name_H-M   'P 1'
_cell_length_a   3.60103047
_cell_length_b   9.23171217
_cell_length_c   5.67629920
_cell_angle_alpha   90.00000000
_cell_angle_beta   104.60375179
_cell_angle_gamma   90.00000000
_symmetry_Int_Tables_number   1
_chemical_formula_structural   Ag3O4
_chemical_formula_sum   'Ag6 O8'
_cell_volume   182.60462743
_cell_formula_units_Z   2
loop_
 _symmetry_equiv_pos_site_id
 _symmetry_equiv_pos_as_xyz
  1  'x, y, z'
loop_
 _atom_site_type_symbol
 _atom_site_label
 _atom_site_symmetry_multiplicity
 _atom_site_fract_x
 _atom_site_fract_y
 _atom_site_fract_z
 _atom_site_occupancy
  Ag  Ag0  1  0.78679778  0.14161447  0.04917469  1.0
  Ag  Ag1  1  0.21320222  0.64161447  0.45082531  1.0
  Ag  Ag2  1  0.21320222  0.85838553  0.95082531  1.0
  Ag  Ag3  1  0.78679778  0.35838553  0.54917469  1.0
  Ag  Ag4  1  0.50000000  0.50000000  0.00000000  1.0
  Ag  Ag5  1  0.50000000  0.00000000  0.50000000  1.0
  O  O6  1  0.54624199  0.30896942  0.83092407  1.0
  O  O7  1  0.45375801  0.80896942  0.66907593  1.0
  O  O8  1  0.45375801  0.69103058  0.16907593  1.0
  O  O9  1  0.54624199  0.19103058  0.33092407  1.0
  O  O10  1  0.97519240  0.04469804  0.77347900  1.0
  O  O11  1  0.02480760  0.54469804  0.72652100  1.0
  O  O12  1  0.97519240  0.45530196  0.27347900  1.0
  O  O13  1  0.02480760  0.95530196  0.22652100  1.0
