# generated using pymatgen
data_Ag3PO4
_symmetry_space_group_name_H-M   'P 1'
_cell_length_a   8.48847297
_cell_length_b   8.48847297
_cell_length_c   10.48044063
_cell_angle_alpha   90.00000000
_cell_angle_beta   90.00000000
_cell_angle_gamma   120.00000000
_symmetry_Int_Tables_number   1
_chemical_formula_structural   Ag3PO4
_chemical_formula_sum   'Ag18 P6 O24'
_cell_volume   653.98729884
_cell_formula_units_Z   6
loop_
 _symmetry_equiv_pos_site_id
 _symmetry_equiv_pos_as_xyz
  1  'x, y, z'
loop_
 _atom_site_type_symbol
 _atom_site_label
 _atom_site_symmetry_multiplicity
 _atom_site_fract_x
 _atom_site_fract_y
 _atom_site_fract_z
 _atom_site_occupancy
  Ag  Ag0  1  0.29540066  0.39952240  0.89705964  1.0
  Ag  Ag1  1  0.10412173  0.70459934  0.89705964  1.0
  Ag  Ag2  1  0.60047760  0.89587827  0.89705964  1.0
  Ag  Ag3  1  0.10412173  0.39952240  0.39705964  1.0
  Ag  Ag4  1  0.29540066  0.89587827  0.39705964  1.0
  Ag  Ag5  1  0.60047760  0.70459934  0.39705964  1.0
  Ag  Ag6  1  0.96206733  0.73285573  0.23039297  1.0
  Ag  Ag7  1  0.77078840  0.03793267  0.23039297  1.0
  Ag  Ag8  1  0.26714427  0.22921160  0.23039297  1.0
  Ag  Ag9  1  0.77078840  0.73285573  0.73039297  1.0
  Ag  Ag10  1  0.96206733  0.22921160  0.73039297  1.0
  Ag  Ag11  1  0.26714427  0.03793267  0.73039297  1.0
  Ag  Ag12  1  0.62873400  0.06618906  0.56372630  1.0
  Ag  Ag13  1  0.43745507  0.37126600  0.56372630  1.0
  Ag  Ag14  1  0.93381094  0.56254493  0.56372630  1.0
  Ag  Ag15  1  0.43745507  0.06618906  0.06372630  1.0
  Ag  Ag16  1  0.62873400  0.56254493  0.06372630  1.0
  Ag  Ag17  1  0.93381094  0.37126600  0.06372630  1.0
  P  P18  1  0.33333333  0.66666667  0.16795878  1.0
  P  P19  1  0.33333333  0.66666667  0.66795878  1.0
  P  P20  1  0.00000000  0.00000000  0.50129211  1.0
  P  P21  1  0.00000000  0.00000000  0.00129211  1.0
  P  P22  1  0.66666667  0.33333333  0.83462544  1.0
  P  P23  1  0.66666667  0.33333333  0.33462544  1.0
  O  O24  1  0.33333333  0.66666667  0.81780678  1.0
  O  O25  1  0.86512746  0.44570522  0.28846295  1.0
  O  O26  1  0.55429478  0.41942223  0.28846295  1.0
  O  O27  1  0.58057777  0.13487254  0.28846295  1.0
  O  O28  1  0.24724443  0.77903856  0.12179629  1.0
  O  O29  1  0.53179412  0.75275557  0.12179629  1.0
  O  O30  1  0.33333333  0.66666667  0.31780678  1.0
  O  O31  1  0.22096144  0.46820588  0.12179629  1.0
  O  O32  1  0.00000000  0.00000000  0.15114011  1.0
  O  O33  1  0.53179412  0.77903856  0.62179629  1.0
  O  O34  1  0.22096144  0.75275557  0.62179629  1.0
  O  O35  1  0.24724443  0.46820588  0.62179629  1.0
  O  O36  1  0.91391110  0.11237189  0.45512962  1.0
  O  O37  1  0.19846079  0.08608890  0.45512962  1.0
  O  O38  1  0.00000000  0.00000000  0.65114011  1.0
  O  O39  1  0.88762811  0.80153921  0.45512962  1.0
  O  O40  1  0.66666667  0.33333333  0.48447344  1.0
  O  O41  1  0.19846079  0.11237189  0.95512962  1.0
  O  O42  1  0.88762811  0.08608890  0.95512962  1.0
  O  O43  1  0.91391110  0.80153921  0.95512962  1.0
  O  O44  1  0.58057777  0.44570522  0.78846295  1.0
  O  O45  1  0.86512746  0.41942223  0.78846295  1.0
  O  O46  1  0.66666667  0.33333333  0.98447344  1.0
  O  O47  1  0.55429478  0.13487254  0.78846295  1.0
