# generated using pymatgen
data_Ag6P6O19
_symmetry_space_group_name_H-M   'P 1'
_cell_length_a   15.02914202
_cell_length_b   15.02914202
_cell_length_c   6.65933323
_cell_angle_alpha   90.00000000
_cell_angle_beta   90.00000000
_cell_angle_gamma   120.00000000
_symmetry_Int_Tables_number   1
_chemical_formula_structural   Ag6P6O19
_chemical_formula_sum   'Ag18 P18 O57'
_cell_volume   1302.65603497
_cell_formula_units_Z   3
loop_
 _symmetry_equiv_pos_site_id
 _symmetry_equiv_pos_as_xyz
  1  'x, y, z'
loop_
 _atom_site_type_symbol
 _atom_site_label
 _atom_site_symmetry_multiplicity
 _atom_site_fract_x
 _atom_site_fract_y
 _atom_site_fract_z
 _atom_site_occupancy
  Ag  Ag0  1  0.92873933  0.39469567  0.91328367  1.0
  Ag  Ag1  1  0.13262300  0.40459400  0.24661700  1.0
  Ag  Ag2  1  0.93863767  0.20071033  0.57995033  1.0
  Ag  Ag3  1  0.40474167  0.27200333  0.75330433  1.0
  Ag  Ag4  1  0.20059500  0.26192500  0.41997100  1.0
  Ag  Ag5  1  0.39466333  0.46607167  0.08663767  1.0
  Ag  Ag6  1  0.59540600  0.72802900  0.24661700  1.0
  Ag  Ag7  1  0.79928967  0.73792733  0.57995033  1.0
  Ag  Ag8  1  0.60530433  0.53404367  0.91328367  1.0
  Ag  Ag9  1  0.07140833  0.60533667  0.08663767  1.0
  Ag  Ag10  1  0.86726167  0.59525833  0.75330433  1.0
  Ag  Ag11  1  0.06133000  0.79940500  0.41997100  1.0
  Ag  Ag12  1  0.26207267  0.06136233  0.57995033  1.0
  Ag  Ag13  1  0.46595633  0.07126067  0.91328367  1.0
  Ag  Ag14  1  0.27197100  0.86737700  0.24661700  1.0
  Ag  Ag15  1  0.73807500  0.93867000  0.41997100  1.0
  Ag  Ag16  1  0.53392833  0.92859167  0.08663767  1.0
  Ag  Ag17  1  0.72799667  0.13273833  0.75330433  1.0
  P  P18  1  0.96048433  0.16529367  0.06322467  1.0
  P  P19  1  0.87147600  0.37284900  0.39655800  1.0
  P  P20  1  0.16803967  0.46185733  0.72989133  1.0
  P  P21  1  0.37286700  0.50135700  0.60349800  1.0
  P  P22  1  0.46182333  0.29379967  0.27016467  1.0
  P  P23  1  0.16530967  0.20484333  0.93683133  1.0
  P  P24  1  0.62715100  0.49862700  0.39655800  1.0
  P  P25  1  0.53814267  0.70618233  0.72989133  1.0
  P  P26  1  0.83470633  0.79519067  0.06322467  1.0
  P  P27  1  0.03953367  0.83469033  0.93683133  1.0
  P  P28  1  0.12849000  0.62713300  0.60349800  1.0
  P  P29  1  0.83197633  0.53817667  0.27016467  1.0
  P  P30  1  0.29381767  0.83196033  0.72989133  1.0
  P  P31  1  0.20480933  0.03951567  0.06322467  1.0
  P  P32  1  0.50137300  0.12852400  0.39655800  1.0
  P  P33  1  0.70620033  0.16802367  0.27016467  1.0
  P  P34  1  0.79515667  0.96046633  0.93683133  1.0
  P  P35  1  0.49864300  0.87151000  0.60349800  1.0
  O  O36  1  0.86205233  0.32297567  0.59763767  1.0
  O  O37  1  0.12759000  0.47128100  0.93097100  1.0
  O  O38  1  0.01035767  0.20574333  0.26430433  1.0
  O  O39  1  0.47143567  0.34371633  0.06887433  1.0
  O  O40  1  0.20561400  0.19523100  0.73554100  1.0
  O  O41  1  0.32295033  0.46105267  0.40220767  1.0
  O  O42  1  0.54740700  0.37723500  0.42413900  1.0
  O  O43  1  0.16316133  0.11925967  0.09080567  1.0
  O  O44  1  0.28943167  0.50350533  0.75747233  1.0
  O  O45  1  0.78589467  0.28945833  0.24242633  1.0
  O  O46  1  0.17023033  0.54743867  0.57575967  1.0
  O  O47  1  0.04387500  0.16310300  0.90909300  1.0
  O  O48  1  0.91007467  0.21602233  0.95314533  1.0
  O  O49  1  0.97261433  0.42325867  0.28647867  1.0
  O  O50  1  0.11731100  0.36071900  0.61981200  1.0
  O  O51  1  0.42326533  0.45067467  0.71338267  1.0
  O  O52  1  0.36074267  0.24340133  0.38004933  1.0
  O  O53  1  0.21599200  0.30592400  0.04671600  1.0
  O  O54  1  0.00000000  0.00000000  0.47925400  1.0
  O  O55  1  0.52871900  0.65630900  0.93097100  1.0
  O  O56  1  0.79425667  0.80461433  0.26430433  1.0
  O  O57  1  0.67702433  0.53907667  0.59763767  1.0
  O  O58  1  0.13810233  0.67704967  0.40220767  1.0
  O  O59  1  0.87228067  0.52856433  0.06887433  1.0
  O  O60  1  0.98961700  0.79438600  0.73554100  1.0
  O  O61  1  0.21407367  0.71056833  0.75747233  1.0
  O  O62  1  0.82982800  0.45259300  0.42413900  1.0
  O  O63  1  0.95609833  0.83683867  0.09080567  1.0
  O  O64  1  0.45256133  0.62279167  0.57575967  1.0
  O  O65  1  0.83689700  0.88077200  0.90909300  1.0
  O  O66  1  0.71054167  0.49643633  0.24242633  1.0
  O  O67  1  0.57674133  0.54935567  0.28647867  1.0
  O  O68  1  0.63928100  0.75659200  0.61981200  1.0
  O  O69  1  0.78397767  0.69405233  0.95314533  1.0
  O  O70  1  0.08993200  0.78400800  0.04671600  1.0
  O  O71  1  0.02740933  0.57673467  0.71338267  1.0
  O  O72  1  0.88265867  0.63925733  0.38004933  1.0
  O  O73  1  0.66666667  0.33333333  0.81258733  1.0
  O  O74  1  0.19538567  0.98964233  0.26430433  1.0
  O  O75  1  0.46092333  0.13794767  0.59763767  1.0
  O  O76  1  0.34369100  0.87241000  0.93097100  1.0
  O  O77  1  0.80476900  0.01038300  0.73554100  1.0
  O  O78  1  0.53894733  0.86189767  0.40220767  1.0
  O  O79  1  0.65628367  0.12771933  0.06887433  1.0
  O  O80  1  0.88074033  0.04390167  0.09080567  1.0
  O  O81  1  0.49649467  0.78592633  0.75747233  1.0
  O  O82  1  0.62276500  0.17017200  0.42413900  1.0
  O  O83  1  0.11922800  0.95612500  0.90909300  1.0
  O  O84  1  0.50356367  0.21410533  0.24242633  1.0
  O  O85  1  0.37720833  0.82976967  0.57575967  1.0
  O  O86  1  0.24340800  0.88268900  0.61981200  1.0
  O  O87  1  0.30594767  0.08992533  0.95314533  1.0
  O  O88  1  0.45064433  0.02738567  0.28647867  1.0
  O  O89  1  0.75659867  0.11734133  0.38004933  1.0
  O  O90  1  0.69407600  0.91006800  0.04671600  1.0
  O  O91  1  0.54932533  0.97259067  0.71338267  1.0
  O  O92  1  0.33333333  0.66666667  0.14592067  1.0
