# generated using pymatgen
data_Ag6Te4W3O20
_symmetry_space_group_name_H-M   'P 1'
_cell_length_a   30.28944001
_cell_length_b   6.82229400
_cell_length_c   9.71240627
_cell_angle_alpha   90.00000000
_cell_angle_beta   91.63274022
_cell_angle_gamma   90.00000000
_symmetry_Int_Tables_number   1
_chemical_formula_structural   Ag6Te4W3O20
_chemical_formula_sum   'Ag24 Te16 W12 O80'
_cell_volume   2006.19043289
_cell_formula_units_Z   4
loop_
 _symmetry_equiv_pos_site_id
 _symmetry_equiv_pos_as_xyz
  1  'x, y, z'
loop_
 _atom_site_type_symbol
 _atom_site_label
 _atom_site_symmetry_multiplicity
 _atom_site_fract_x
 _atom_site_fract_y
 _atom_site_fract_z
 _atom_site_occupancy
  Ag  Ag0  1  0.03017850  0.60547950  0.40703300  1.0
  Ag  Ag1  1  0.46982150  0.10547950  0.09296700  1.0
  Ag  Ag2  1  0.46982150  0.89452050  0.59296700  1.0
  Ag  Ag3  1  0.03017850  0.39452050  0.90703300  1.0
  Ag  Ag4  1  0.39351450  0.85285750  0.29495000  1.0
  Ag  Ag5  1  0.10648550  0.35285750  0.20505000  1.0
  Ag  Ag6  1  0.10648550  0.64714250  0.70505000  1.0
  Ag  Ag7  1  0.39351450  0.14714250  0.79495000  1.0
  Ag  Ag8  1  0.31625450  0.17108950  0.50870200  1.0
  Ag  Ag9  1  0.18374550  0.67108950  0.99129800  1.0
  Ag  Ag10  1  0.18374550  0.32891050  0.49129800  1.0
  Ag  Ag11  1  0.31625450  0.82891050  0.00870200  1.0
  Ag  Ag12  1  0.53017850  0.10547950  0.40703300  1.0
  Ag  Ag13  1  0.96982150  0.60547950  0.09296700  1.0
  Ag  Ag14  1  0.96982150  0.39452050  0.59296700  1.0
  Ag  Ag15  1  0.53017850  0.89452050  0.90703300  1.0
  Ag  Ag16  1  0.89351450  0.35285750  0.29495000  1.0
  Ag  Ag17  1  0.60648550  0.85285750  0.20505000  1.0
  Ag  Ag18  1  0.60648550  0.14714250  0.70505000  1.0
  Ag  Ag19  1  0.89351450  0.64714250  0.79495000  1.0
  Ag  Ag20  1  0.81625450  0.67108950  0.50870200  1.0
  Ag  Ag21  1  0.68374550  0.17108950  0.99129800  1.0
  Ag  Ag22  1  0.68374550  0.82891050  0.49129800  1.0
  Ag  Ag23  1  0.81625450  0.32891050  0.00870200  1.0
  Te  Te24  1  0.42045200  0.64240400  0.96202800  1.0
  Te  Te25  1  0.07954800  0.14240400  0.53797200  1.0
  Te  Te26  1  0.07954800  0.85759600  0.03797200  1.0
  Te  Te27  1  0.42045200  0.35759600  0.46202800  1.0
  Te  Te28  1  0.27075450  0.63220950  0.35579200  1.0
  Te  Te29  1  0.22924550  0.13220950  0.14420800  1.0
  Te  Te30  1  0.22924550  0.86779050  0.64420800  1.0
  Te  Te31  1  0.27075450  0.36779050  0.85579200  1.0
  Te  Te32  1  0.92045200  0.14240400  0.96202800  1.0
  Te  Te33  1  0.57954800  0.64240400  0.53797200  1.0
  Te  Te34  1  0.57954800  0.35759600  0.03797200  1.0
  Te  Te35  1  0.92045200  0.85759600  0.46202800  1.0
  Te  Te36  1  0.77075450  0.13220950  0.35579200  1.0
  Te  Te37  1  0.72924550  0.63220950  0.14420800  1.0
  Te  Te38  1  0.72924550  0.36779050  0.64420800  1.0
  Te  Te39  1  0.77075450  0.86779050  0.85579200  1.0
  W  W40  1  0.00000000  0.06288200  0.25000000  1.0
  W  W41  1  0.00000000  0.93711800  0.75000000  1.0
  W  W42  1  0.33420100  0.68774100  0.65370800  1.0
  W  W43  1  0.16579900  0.18774100  0.84629200  1.0
  W  W44  1  0.16579900  0.81225900  0.34629200  1.0
  W  W45  1  0.33420100  0.31225900  0.15370800  1.0
  W  W46  1  0.50000000  0.56288200  0.25000000  1.0
  W  W47  1  0.50000000  0.43711800  0.75000000  1.0
  W  W48  1  0.83420100  0.18774100  0.65370800  1.0
  W  W49  1  0.66579900  0.68774100  0.84629200  1.0
  W  W50  1  0.66579900  0.31225900  0.34629200  1.0
  W  W51  1  0.83420100  0.81225900  0.15370800  1.0
  O  O52  1  0.27188350  0.58674950  0.55294000  1.0
  O  O53  1  0.22811650  0.08674950  0.94706000  1.0
  O  O54  1  0.22811650  0.91325050  0.44706000  1.0
  O  O55  1  0.27188350  0.41325050  0.05294000  1.0
  O  O56  1  0.47114150  0.69313750  0.85087600  1.0
  O  O57  1  0.02885850  0.19313750  0.64912400  1.0
  O  O58  1  0.02885850  0.80686250  0.14912400  1.0
  O  O59  1  0.47114150  0.30686250  0.35087600  1.0
  O  O60  1  0.20926700  0.55721800  0.33881600  1.0
  O  O61  1  0.29073300  0.05721800  0.16118400  1.0
  O  O62  1  0.29073300  0.94278200  0.66118400  1.0
  O  O63  1  0.20926700  0.44278200  0.83881600  1.0
  O  O64  1  0.45336800  0.50589100  0.11007000  1.0
  O  O65  1  0.04663200  0.00589100  0.38993000  1.0
  O  O66  1  0.04663200  0.99410900  0.88993000  1.0
  O  O67  1  0.45336800  0.49410900  0.61007000  1.0
  O  O68  1  0.41702200  0.88650100  0.04937000  1.0
  O  O69  1  0.08297800  0.38650100  0.45063000  1.0
  O  O70  1  0.08297800  0.61349900  0.95063000  1.0
  O  O71  1  0.41702200  0.11349900  0.54937000  1.0
  O  O72  1  0.29184350  0.36758450  0.32338800  1.0
  O  O73  1  0.20815650  0.86758450  0.17661200  1.0
  O  O74  1  0.20815650  0.13241550  0.67661200  1.0
  O  O75  1  0.29184350  0.63241550  0.82338800  1.0
  O  O76  1  0.35232450  0.43252950  0.65892900  1.0
  O  O77  1  0.14767550  0.93252950  0.84107100  1.0
  O  O78  1  0.14767550  0.06747050  0.34107100  1.0
  O  O79  1  0.35232450  0.56747050  0.15892900  1.0
  O  O80  1  0.46643050  0.72810750  0.34792300  1.0
  O  O81  1  0.03356950  0.22810750  0.15207700  1.0
  O  O82  1  0.03356950  0.77189250  0.65207700  1.0
  O  O83  1  0.46643050  0.27189250  0.84792300  1.0
  O  O84  1  0.34953450  0.75948850  0.48041700  1.0
  O  O85  1  0.15046550  0.25948850  0.01958300  1.0
  O  O86  1  0.15046550  0.74051150  0.51958300  1.0
  O  O87  1  0.34953450  0.24051150  0.98041700  1.0
  O  O88  1  0.37442650  0.80902750  0.76871800  1.0
  O  O89  1  0.12557350  0.30902750  0.73128200  1.0
  O  O90  1  0.12557350  0.69097250  0.23128200  1.0
  O  O91  1  0.37442650  0.19097250  0.26871800  1.0
  O  O92  1  0.77188350  0.08674950  0.55294000  1.0
  O  O93  1  0.72811650  0.58674950  0.94706000  1.0
  O  O94  1  0.72811650  0.41325050  0.44706000  1.0
  O  O95  1  0.77188350  0.91325050  0.05294000  1.0
  O  O96  1  0.97114150  0.19313750  0.85087600  1.0
  O  O97  1  0.52885850  0.69313750  0.64912400  1.0
  O  O98  1  0.52885850  0.30686250  0.14912400  1.0
  O  O99  1  0.97114150  0.80686250  0.35087600  1.0
  O  O100  1  0.70926700  0.05721800  0.33881600  1.0
  O  O101  1  0.79073300  0.55721800  0.16118400  1.0
  O  O102  1  0.79073300  0.44278200  0.66118400  1.0
  O  O103  1  0.70926700  0.94278200  0.83881600  1.0
  O  O104  1  0.95336800  0.00589100  0.11007000  1.0
  O  O105  1  0.54663200  0.50589100  0.38993000  1.0
  O  O106  1  0.54663200  0.49410900  0.88993000  1.0
  O  O107  1  0.95336800  0.99410900  0.61007000  1.0
  O  O108  1  0.91702200  0.38650100  0.04937000  1.0
  O  O109  1  0.58297800  0.88650100  0.45063000  1.0
  O  O110  1  0.58297800  0.11349900  0.95063000  1.0
  O  O111  1  0.91702200  0.61349900  0.54937000  1.0
  O  O112  1  0.79184350  0.86758450  0.32338800  1.0
  O  O113  1  0.70815650  0.36758450  0.17661200  1.0
  O  O114  1  0.70815650  0.63241550  0.67661200  1.0
  O  O115  1  0.79184350  0.13241550  0.82338800  1.0
  O  O116  1  0.85232450  0.93252950  0.65892900  1.0
  O  O117  1  0.64767550  0.43252950  0.84107100  1.0
  O  O118  1  0.64767550  0.56747050  0.34107100  1.0
  O  O119  1  0.85232450  0.06747050  0.15892900  1.0
  O  O120  1  0.96643050  0.22810750  0.34792300  1.0
  O  O121  1  0.53356950  0.72810750  0.15207700  1.0
  O  O122  1  0.53356950  0.27189250  0.65207700  1.0
  O  O123  1  0.96643050  0.77189250  0.84792300  1.0
  O  O124  1  0.84953450  0.25948850  0.48041700  1.0
  O  O125  1  0.65046550  0.75948850  0.01958300  1.0
  O  O126  1  0.65046550  0.24051150  0.51958300  1.0
  O  O127  1  0.84953450  0.74051150  0.98041700  1.0
  O  O128  1  0.87442650  0.30902750  0.76871800  1.0
  O  O129  1  0.62557350  0.80902750  0.73128200  1.0
  O  O130  1  0.62557350  0.19097250  0.23128200  1.0
  O  O131  1  0.87442650  0.69097250  0.26871800  1.0
