# generated using pymatgen
data_AgAs(SeF2)3
_symmetry_space_group_name_H-M   'P 1'
_cell_length_a   9.48747600
_cell_length_b   16.01216800
_cell_length_c   5.44222824
_cell_angle_alpha   90.00000000
_cell_angle_beta   92.61823514
_cell_angle_gamma   90.00000000
_symmetry_Int_Tables_number   1
_chemical_formula_structural   AgAs(SeF2)3
_chemical_formula_sum   'Ag4 As4 Se12 F24'
_cell_volume   825.89336142
_cell_formula_units_Z   4
loop_
 _symmetry_equiv_pos_site_id
 _symmetry_equiv_pos_as_xyz
  1  'x, y, z'
loop_
 _atom_site_type_symbol
 _atom_site_label
 _atom_site_symmetry_multiplicity
 _atom_site_fract_x
 _atom_site_fract_y
 _atom_site_fract_z
 _atom_site_occupancy
  Ag  Ag0  1  0.50000000  0.00000000  0.00000000  1.0
  Ag  Ag1  1  0.00000000  0.00000000  0.50000000  1.0
  Ag  Ag2  1  0.00000000  0.50000000  0.00000000  1.0
  Ag  Ag3  1  0.50000000  0.50000000  0.50000000  1.0
  As  As4  1  0.50000000  0.32582400  0.00000000  1.0
  As  As5  1  0.50000000  0.67417600  0.00000000  1.0
  As  As6  1  0.00000000  0.82582400  0.00000000  1.0
  As  As7  1  0.00000000  0.17417600  0.00000000  1.0
  Se  Se8  1  0.27768700  0.00000000  0.38532300  1.0
  Se  Se9  1  0.72231300  0.00000000  0.61467700  1.0
  Se  Se10  1  0.39268400  0.88621400  0.60156800  1.0
  Se  Se11  1  0.39268400  0.11378600  0.60156800  1.0
  Se  Se12  1  0.60731600  0.11378600  0.39843200  1.0
  Se  Se13  1  0.60731600  0.88621400  0.39843200  1.0
  Se  Se14  1  0.77768700  0.50000000  0.38532300  1.0
  Se  Se15  1  0.22231300  0.50000000  0.61467700  1.0
  Se  Se16  1  0.89268400  0.38621400  0.60156800  1.0
  Se  Se17  1  0.89268400  0.61378600  0.60156800  1.0
  Se  Se18  1  0.10731600  0.61378600  0.39843200  1.0
  Se  Se19  1  0.10731600  0.38621400  0.39843200  1.0
  F  F20  1  0.11165750  0.90628050  0.88373600  1.0
  F  F21  1  0.11165750  0.09371950  0.88373600  1.0
  F  F22  1  0.88834250  0.09371950  0.11626400  1.0
  F  F23  1  0.88834250  0.90628050  0.11626400  1.0
  F  F24  1  0.60142350  0.32947650  0.28116100  1.0
  F  F25  1  0.60142350  0.67052350  0.28116100  1.0
  F  F26  1  0.39857650  0.67052350  0.71883900  1.0
  F  F27  1  0.39857650  0.32947650  0.71883900  1.0
  F  F28  1  0.39086550  0.24797550  0.11809300  1.0
  F  F29  1  0.39086550  0.75202450  0.11809300  1.0
  F  F30  1  0.60913450  0.75202450  0.88190700  1.0
  F  F31  1  0.60913450  0.24797550  0.88190700  1.0
  F  F32  1  0.61165750  0.40628050  0.88373600  1.0
  F  F33  1  0.61165750  0.59371950  0.88373600  1.0
  F  F34  1  0.38834250  0.59371950  0.11626400  1.0
  F  F35  1  0.38834250  0.40628050  0.11626400  1.0
  F  F36  1  0.10142350  0.82947650  0.28116100  1.0
  F  F37  1  0.10142350  0.17052350  0.28116100  1.0
  F  F38  1  0.89857650  0.17052350  0.71883900  1.0
  F  F39  1  0.89857650  0.82947650  0.71883900  1.0
  F  F40  1  0.89086550  0.74797550  0.11809300  1.0
  F  F41  1  0.89086550  0.25202450  0.11809300  1.0
  F  F42  1  0.10913450  0.25202450  0.88190700  1.0
  F  F43  1  0.10913450  0.74797550  0.88190700  1.0
