# generated using pymatgen
data_Ag3SbS3
_symmetry_space_group_name_H-M   'P 1'
_cell_length_a   12.21557587
_cell_length_b   12.21557587
_cell_length_c   8.52215454
_cell_angle_alpha   90.00000000
_cell_angle_beta   90.00000000
_cell_angle_gamma   120.00000000
_symmetry_Int_Tables_number   1
_chemical_formula_structural   Ag3SbS3
_chemical_formula_sum   'Ag18 Sb6 S18'
_cell_volume   1101.30580380
_cell_formula_units_Z   6
loop_
 _symmetry_equiv_pos_site_id
 _symmetry_equiv_pos_as_xyz
  1  'x, y, z'
loop_
 _atom_site_type_symbol
 _atom_site_label
 _atom_site_symmetry_multiplicity
 _atom_site_fract_x
 _atom_site_fract_y
 _atom_site_fract_z
 _atom_site_occupancy
  Ag  Ag0  1  0.18860233  0.88408267  0.76460367  1.0
  Ag  Ag1  1  0.78258400  0.14473100  0.59793700  1.0
  Ag  Ag2  1  0.11591733  0.30451967  0.76460367  1.0
  Ag  Ag3  1  0.85526900  0.63785300  0.59793700  1.0
  Ag  Ag4  1  0.69548033  0.81139767  0.76460367  1.0
  Ag  Ag5  1  0.36214700  0.21741600  0.59793700  1.0
  Ag  Ag6  1  0.85526900  0.21741600  0.09793700  1.0
  Ag  Ag7  1  0.44925067  0.47806433  0.93127033  1.0
  Ag  Ag8  1  0.78258400  0.63785300  0.09793700  1.0
  Ag  Ag9  1  0.52193567  0.97118633  0.93127033  1.0
  Ag  Ag10  1  0.36214700  0.14473100  0.09793700  1.0
  Ag  Ag11  1  0.02881367  0.55074933  0.93127033  1.0
  Ag  Ag12  1  0.52193567  0.55074933  0.43127033  1.0
  Ag  Ag13  1  0.11591733  0.81139767  0.26460367  1.0
  Ag  Ag14  1  0.44925067  0.97118633  0.43127033  1.0
  Ag  Ag15  1  0.18860233  0.30451967  0.26460367  1.0
  Ag  Ag16  1  0.02881367  0.47806433  0.43127033  1.0
  Ag  Ag17  1  0.69548033  0.88408267  0.26460367  1.0
  Sb  Sb18  1  0.00000000  0.00000000  0.40170000  1.0
  Sb  Sb19  1  0.00000000  0.00000000  0.90170000  1.0
  Sb  Sb20  1  0.66666667  0.33333333  0.73503333  1.0
  Sb  Sb21  1  0.66666667  0.33333333  0.23503333  1.0
  Sb  Sb22  1  0.33333333  0.66666667  0.06836667  1.0
  Sb  Sb23  1  0.33333333  0.66666667  0.56836667  1.0
  S  S24  1  0.15595067  0.20386333  0.52659633  1.0
  S  S25  1  0.46280333  0.17738267  0.35992967  1.0
  S  S26  1  0.79613667  0.95208733  0.52659633  1.0
  S  S27  1  0.82261733  0.28542067  0.35992967  1.0
  S  S28  1  0.04791267  0.84404933  0.52659633  1.0
  S  S29  1  0.71457933  0.53719667  0.35992967  1.0
  S  S30  1  0.82261733  0.53719667  0.85992967  1.0
  S  S31  1  0.12947000  0.51071600  0.69326300  1.0
  S  S32  1  0.46280333  0.28542067  0.85992967  1.0
  S  S33  1  0.48928400  0.61875400  0.69326300  1.0
  S  S34  1  0.71457933  0.17738267  0.85992967  1.0
  S  S35  1  0.38124600  0.87053000  0.69326300  1.0
  S  S36  1  0.48928400  0.87053000  0.19326300  1.0
  S  S37  1  0.79613667  0.84404933  0.02659633  1.0
  S  S38  1  0.12947000  0.61875400  0.19326300  1.0
  S  S39  1  0.15595067  0.95208733  0.02659633  1.0
  S  S40  1  0.38124600  0.51071600  0.19326300  1.0
  S  S41  1  0.04791267  0.20386333  0.02659633  1.0
