# generated using pymatgen
data_Ag2S
_symmetry_space_group_name_H-M   'P 1'
_cell_length_a   4.30640337
_cell_length_b   7.54611786
_cell_length_c   4.32298584
_cell_angle_alpha   90.00000000
_cell_angle_beta   115.89962185
_cell_angle_gamma   90.00000000
_symmetry_Int_Tables_number   1
_chemical_formula_structural   Ag2S
_chemical_formula_sum   'Ag4 S2'
_cell_volume   126.37249471
_cell_formula_units_Z   2
loop_
 _symmetry_equiv_pos_site_id
 _symmetry_equiv_pos_as_xyz
  1  'x, y, z'
loop_
 _atom_site_type_symbol
 _atom_site_label
 _atom_site_symmetry_multiplicity
 _atom_site_fract_x
 _atom_site_fract_y
 _atom_site_fract_z
 _atom_site_occupancy
  Ag  Ag0  1  0.93792319  0.75000000  0.05676771  1.0
  Ag  Ag1  1  0.06207681  0.25000000  0.94323229  1.0
  Ag  Ag2  1  0.50000000  0.00000000  0.50000000  1.0
  Ag  Ag3  1  0.50000000  0.50000000  0.50000000  1.0
  S  S4  1  0.29540811  0.75000000  0.69522232  1.0
  S  S5  1  0.70459189  0.25000000  0.30477768  1.0
