# generated using pymatgen
data_Ag3RuO4
_symmetry_space_group_name_H-M   'P 1'
_cell_length_a   13.99230799
_cell_length_b   11.50612999
_cell_length_c   12.71871564
_cell_angle_alpha   90.00000000
_cell_angle_beta   120.25163771
_cell_angle_gamma   90.00000000
_symmetry_Int_Tables_number   1
_chemical_formula_structural   Ag3RuO4
_chemical_formula_sum   'Ag48 Ru16 O64'
_cell_volume   1768.82839152
_cell_formula_units_Z   16
loop_
 _symmetry_equiv_pos_site_id
 _symmetry_equiv_pos_as_xyz
  1  'x, y, z'
loop_
 _atom_site_type_symbol
 _atom_site_label
 _atom_site_symmetry_multiplicity
 _atom_site_fract_x
 _atom_site_fract_y
 _atom_site_fract_z
 _atom_site_occupancy
  Ag  Ag0  1  0.00000000  0.54885500  0.75000000  1.0
  Ag  Ag1  1  0.50000000  0.95114500  0.25000000  1.0
  Ag  Ag2  1  0.71917550  0.08868150  0.72863800  1.0
  Ag  Ag3  1  0.78082450  0.58868150  0.77136200  1.0
  Ag  Ag4  1  0.78082450  0.41131850  0.27136200  1.0
  Ag  Ag5  1  0.71917550  0.91131850  0.22863800  1.0
  Ag  Ag6  1  0.88077800  0.32485100  0.73880800  1.0
  Ag  Ag7  1  0.11922200  0.32485100  0.76119200  1.0
  Ag  Ag8  1  0.61922200  0.17514900  0.26119200  1.0
  Ag  Ag9  1  0.38077800  0.17514900  0.23880800  1.0
  Ag  Ag10  1  0.50000000  0.39786800  0.25000000  1.0
  Ag  Ag11  1  0.00000000  0.10213200  0.75000000  1.0
  Ag  Ag12  1  0.50000000  0.00000000  0.50000000  1.0
  Ag  Ag13  1  0.00000000  0.50000000  0.00000000  1.0
  Ag  Ag14  1  0.86574650  0.24869750  0.48941100  1.0
  Ag  Ag15  1  0.63425350  0.74869750  0.01058900  1.0
  Ag  Ag16  1  0.63425350  0.25130250  0.51058900  1.0
  Ag  Ag17  1  0.86574650  0.75130250  0.98941100  1.0
  Ag  Ag18  1  0.00000000  0.00000000  0.50000000  1.0
  Ag  Ag19  1  0.00000000  0.00000000  0.00000000  1.0
  Ag  Ag20  1  0.62649700  0.66889800  0.22511800  1.0
  Ag  Ag21  1  0.87350300  0.16889800  0.27488200  1.0
  Ag  Ag22  1  0.87350300  0.83110200  0.77488200  1.0
  Ag  Ag23  1  0.62649700  0.33110200  0.72511800  1.0
  Ag  Ag24  1  0.50000000  0.04885500  0.75000000  1.0
  Ag  Ag25  1  0.00000000  0.45114500  0.25000000  1.0
  Ag  Ag26  1  0.21917550  0.58868150  0.72863800  1.0
  Ag  Ag27  1  0.28082450  0.08868150  0.77136200  1.0
  Ag  Ag28  1  0.28082450  0.91131850  0.27136200  1.0
  Ag  Ag29  1  0.21917550  0.41131850  0.22863800  1.0
  Ag  Ag30  1  0.38077800  0.82485100  0.73880800  1.0
  Ag  Ag31  1  0.61922200  0.82485100  0.76119200  1.0
  Ag  Ag32  1  0.11922200  0.67514900  0.26119200  1.0
  Ag  Ag33  1  0.88077800  0.67514900  0.23880800  1.0
  Ag  Ag34  1  0.00000000  0.89786800  0.25000000  1.0
  Ag  Ag35  1  0.50000000  0.60213200  0.75000000  1.0
  Ag  Ag36  1  0.00000000  0.50000000  0.50000000  1.0
  Ag  Ag37  1  0.50000000  0.00000000  0.00000000  1.0
  Ag  Ag38  1  0.36574650  0.74869750  0.48941100  1.0
  Ag  Ag39  1  0.13425350  0.24869750  0.01058900  1.0
  Ag  Ag40  1  0.13425350  0.75130250  0.51058900  1.0
  Ag  Ag41  1  0.36574650  0.25130250  0.98941100  1.0
  Ag  Ag42  1  0.50000000  0.50000000  0.50000000  1.0
  Ag  Ag43  1  0.50000000  0.50000000  0.00000000  1.0
  Ag  Ag44  1  0.12649700  0.16889800  0.22511800  1.0
  Ag  Ag45  1  0.37350300  0.66889800  0.27488200  1.0
  Ag  Ag46  1  0.37350300  0.33110200  0.77488200  1.0
  Ag  Ag47  1  0.12649700  0.83110200  0.72511800  1.0
  Ru  Ru48  1  0.73452450  0.51371750  0.49183500  1.0
  Ru  Ru49  1  0.76547550  0.01371750  0.00816500  1.0
  Ru  Ru50  1  0.76547550  0.98628250  0.50816500  1.0
  Ru  Ru51  1  0.73452450  0.48628250  0.99183500  1.0
  Ru  Ru52  1  0.36468450  0.24241450  0.49865100  1.0
  Ru  Ru53  1  0.63531550  0.24241450  0.00134900  1.0
  Ru  Ru54  1  0.13531550  0.25758550  0.50134900  1.0
  Ru  Ru55  1  0.86468450  0.25758550  0.99865100  1.0
  Ru  Ru56  1  0.23452450  0.01371750  0.49183500  1.0
  Ru  Ru57  1  0.26547550  0.51371750  0.00816500  1.0
  Ru  Ru58  1  0.26547550  0.48628250  0.50816500  1.0
  Ru  Ru59  1  0.23452450  0.98628250  0.99183500  1.0
  Ru  Ru60  1  0.86468450  0.74241450  0.49865100  1.0
  Ru  Ru61  1  0.13531550  0.74241450  0.00134900  1.0
  Ru  Ru62  1  0.63531550  0.75758550  0.50134900  1.0
  Ru  Ru63  1  0.36468450  0.75758550  0.99865100  1.0
  O  O64  1  0.50408100  0.82591400  0.10564600  1.0
  O  O65  1  0.99591900  0.32591400  0.39435400  1.0
  O  O66  1  0.99591900  0.67408600  0.89435400  1.0
  O  O67  1  0.50408100  0.17408600  0.60564600  1.0
  O  O68  1  0.78932300  0.66965100  0.59106400  1.0
  O  O69  1  0.21067700  0.66965100  0.90893600  1.0
  O  O70  1  0.71067700  0.83034900  0.40893600  1.0
  O  O71  1  0.28932300  0.83034900  0.09106400  1.0
  O  O72  1  0.87365350  0.42847050  0.58542700  1.0
  O  O73  1  0.12634650  0.42847050  0.91457300  1.0
  O  O74  1  0.62634650  0.07152950  0.41457300  1.0
  O  O75  1  0.37365350  0.07152950  0.08542700  1.0
  O  O76  1  0.67560850  0.45327650  0.59033000  1.0
  O  O77  1  0.32439150  0.45327650  0.90967000  1.0
  O  O78  1  0.82439150  0.04672350  0.40967000  1.0
  O  O79  1  0.17560850  0.04672350  0.09033000  1.0
  O  O80  1  0.79364100  0.59953900  0.39795900  1.0
  O  O81  1  0.70635900  0.09953900  0.10204100  1.0
  O  O82  1  0.70635900  0.90046100  0.60204100  1.0
  O  O83  1  0.79364100  0.40046100  0.89795900  1.0
  O  O84  1  0.67517550  0.39804050  0.36935800  1.0
  O  O85  1  0.82482450  0.89804050  0.13064200  1.0
  O  O86  1  0.82482450  0.10195950  0.63064200  1.0
  O  O87  1  0.67517550  0.60195950  0.86935800  1.0
  O  O88  1  0.39834750  0.29512350  0.38221800  1.0
  O  O89  1  0.60165250  0.29512350  0.11778200  1.0
  O  O90  1  0.10165250  0.20487650  0.61778200  1.0
  O  O91  1  0.89834750  0.20487650  0.88221800  1.0
  O  O92  1  0.90463050  0.11810350  0.09954200  1.0
  O  O93  1  0.09536950  0.11810350  0.40045800  1.0
  O  O94  1  0.59536950  0.38189650  0.90045800  1.0
  O  O95  1  0.40463050  0.38189650  0.59954200  1.0
  O  O96  1  0.00408100  0.32591400  0.10564600  1.0
  O  O97  1  0.49591900  0.82591400  0.39435400  1.0
  O  O98  1  0.49591900  0.17408600  0.89435400  1.0
  O  O99  1  0.00408100  0.67408600  0.60564600  1.0
  O  O100  1  0.28932300  0.16965100  0.59106400  1.0
  O  O101  1  0.71067700  0.16965100  0.90893600  1.0
  O  O102  1  0.21067700  0.33034900  0.40893600  1.0
  O  O103  1  0.78932300  0.33034900  0.09106400  1.0
  O  O104  1  0.37365350  0.92847050  0.58542700  1.0
  O  O105  1  0.62634650  0.92847050  0.91457300  1.0
  O  O106  1  0.12634650  0.57152950  0.41457300  1.0
  O  O107  1  0.87365350  0.57152950  0.08542700  1.0
  O  O108  1  0.17560850  0.95327650  0.59033000  1.0
  O  O109  1  0.82439150  0.95327650  0.90967000  1.0
  O  O110  1  0.32439150  0.54672350  0.40967000  1.0
  O  O111  1  0.67560850  0.54672350  0.09033000  1.0
  O  O112  1  0.29364100  0.09953900  0.39795900  1.0
  O  O113  1  0.20635900  0.59953900  0.10204100  1.0
  O  O114  1  0.20635900  0.40046100  0.60204100  1.0
  O  O115  1  0.29364100  0.90046100  0.89795900  1.0
  O  O116  1  0.17517550  0.89804050  0.36935800  1.0
  O  O117  1  0.32482450  0.39804050  0.13064200  1.0
  O  O118  1  0.32482450  0.60195950  0.63064200  1.0
  O  O119  1  0.17517550  0.10195950  0.86935800  1.0
  O  O120  1  0.89834750  0.79512350  0.38221800  1.0
  O  O121  1  0.10165250  0.79512350  0.11778200  1.0
  O  O122  1  0.60165250  0.70487650  0.61778200  1.0
  O  O123  1  0.39834750  0.70487650  0.88221800  1.0
  O  O124  1  0.40463050  0.61810350  0.09954200  1.0
  O  O125  1  0.59536950  0.61810350  0.40045800  1.0
  O  O126  1  0.09536950  0.88189650  0.90045800  1.0
  O  O127  1  0.90463050  0.88189650  0.59954200  1.0
