# generated using pymatgen
data_Ag6SbAsS6
_symmetry_space_group_name_H-M   'P 1'
_cell_length_a   10.97527597
_cell_length_b   10.97527597
_cell_length_c   9.30576224
_cell_angle_alpha   90.00000000
_cell_angle_beta   90.00000000
_cell_angle_gamma   120.00000000
_symmetry_Int_Tables_number   1
_chemical_formula_structural   Ag6SbAsS6
_chemical_formula_sum   'Ag18 Sb3 As3 S18'
_cell_volume   970.76359749
_cell_formula_units_Z   3
loop_
 _symmetry_equiv_pos_site_id
 _symmetry_equiv_pos_as_xyz
  1  'x, y, z'
loop_
 _atom_site_type_symbol
 _atom_site_label
 _atom_site_symmetry_multiplicity
 _atom_site_fract_x
 _atom_site_fract_y
 _atom_site_fract_z
 _atom_site_occupancy
  Ag  Ag0  1  0.24775200  0.30112000  0.73077400  1.0
  Ag  Ag1  1  0.69888000  0.94663200  0.73077400  1.0
  Ag  Ag2  1  0.05336800  0.75224800  0.73077400  1.0
  Ag  Ag3  1  0.37111633  0.08617467  0.56165367  1.0
  Ag  Ag4  1  0.91382533  0.28494167  0.56165367  1.0
  Ag  Ag5  1  0.71505833  0.62888367  0.56165367  1.0
  Ag  Ag6  1  0.91441867  0.63445333  0.06410733  1.0
  Ag  Ag7  1  0.36554667  0.27996533  0.06410733  1.0
  Ag  Ag8  1  0.72003467  0.08558133  0.06410733  1.0
  Ag  Ag9  1  0.03778300  0.41950800  0.89498700  1.0
  Ag  Ag10  1  0.58049200  0.61827500  0.89498700  1.0
  Ag  Ag11  1  0.38172500  0.96221700  0.89498700  1.0
  Ag  Ag12  1  0.58108533  0.96778667  0.39744067  1.0
  Ag  Ag13  1  0.03221333  0.61329867  0.39744067  1.0
  Ag  Ag14  1  0.38670133  0.41891467  0.39744067  1.0
  Ag  Ag15  1  0.70444967  0.75284133  0.22832033  1.0
  Ag  Ag16  1  0.24715867  0.95160833  0.22832033  1.0
  Ag  Ag17  1  0.04839167  0.29555033  0.22832033  1.0
  Sb  Sb18  1  0.00000000  0.00000000  0.52365900  1.0
  Sb  Sb19  1  0.66666667  0.33333333  0.85699233  1.0
  Sb  Sb20  1  0.33333333  0.66666667  0.19032567  1.0
  As  As21  1  0.00000000  0.00000000  0.00521200  1.0
  As  As22  1  0.66666667  0.33333333  0.33854533  1.0
  As  As23  1  0.33333333  0.66666667  0.67187867  1.0
  S  S24  1  0.54724733  0.77062667  0.55241967  1.0
  S  S25  1  0.22937333  0.77662067  0.55241967  1.0
  S  S26  1  0.22337933  0.45275267  0.55241967  1.0
  S  S27  1  0.89349500  0.77481700  0.38552900  1.0
  S  S28  1  0.22518300  0.11867800  0.38552900  1.0
  S  S29  1  0.88132200  0.10650500  0.38552900  1.0
  S  S30  1  0.21391400  0.10396000  0.88575300  1.0
  S  S31  1  0.89604000  0.10995400  0.88575300  1.0
  S  S32  1  0.89004600  0.78608600  0.88575300  1.0
  S  S33  1  0.56016167  0.10815033  0.71886233  1.0
  S  S34  1  0.89184967  0.45201133  0.71886233  1.0
  S  S35  1  0.54798867  0.43983833  0.71886233  1.0
  S  S36  1  0.88058067  0.43729333  0.21908633  1.0
  S  S37  1  0.56270667  0.44328733  0.21908633  1.0
  S  S38  1  0.55671267  0.11941933  0.21908633  1.0
  S  S39  1  0.22682833  0.44148367  0.05219567  1.0
  S  S40  1  0.55851633  0.78534467  0.05219567  1.0
  S  S41  1  0.21465533  0.77317167  0.05219567  1.0
