# generated using pymatgen
data_Ag2Te2O7
_symmetry_space_group_name_H-M   'P 1'
_cell_length_a   7.28651160
_cell_length_b   7.55797286
_cell_length_c   10.22063931
_cell_angle_alpha   90.00000000
_cell_angle_beta   90.00000000
_cell_angle_gamma   90.00000000
_symmetry_Int_Tables_number   1
_chemical_formula_structural   Ag2Te2O7
_chemical_formula_sum   'Ag8 Te8 O28'
_cell_volume   562.86345330
_cell_formula_units_Z   4
loop_
 _symmetry_equiv_pos_site_id
 _symmetry_equiv_pos_as_xyz
  1  'x, y, z'
loop_
 _atom_site_type_symbol
 _atom_site_label
 _atom_site_symmetry_multiplicity
 _atom_site_fract_x
 _atom_site_fract_y
 _atom_site_fract_z
 _atom_site_occupancy
  Ag  Ag0  1  0.50000000  0.00000000  0.00000000  1.0
  Ag  Ag1  1  0.00000000  0.50000000  0.00000000  1.0
  Ag  Ag2  1  0.75000000  0.75000000  0.75000000  1.0
  Ag  Ag3  1  0.25000000  0.75000000  0.75000000  1.0
  Ag  Ag4  1  0.00000000  0.50000000  0.50000000  1.0
  Ag  Ag5  1  0.50000000  0.00000000  0.50000000  1.0
  Ag  Ag6  1  0.25000000  0.25000000  0.25000000  1.0
  Ag  Ag7  1  0.75000000  0.25000000  0.25000000  1.0
  Te  Te8  1  0.50000000  0.50000000  0.00000000  1.0
  Te  Te9  1  0.00000000  0.00000000  0.00000000  1.0
  Te  Te10  1  0.25000000  0.75000000  0.25000000  1.0
  Te  Te11  1  0.75000000  0.75000000  0.25000000  1.0
  Te  Te12  1  0.00000000  0.00000000  0.50000000  1.0
  Te  Te13  1  0.50000000  0.50000000  0.50000000  1.0
  Te  Te14  1  0.75000000  0.25000000  0.75000000  1.0
  Te  Te15  1  0.25000000  0.25000000  0.75000000  1.0
  O  O16  1  0.70197855  0.42720062  0.87952833  1.0
  O  O17  1  0.70197855  0.57279938  0.12047167  1.0
  O  O18  1  0.29802145  0.42720062  0.62047167  1.0
  O  O19  1  0.29802145  0.57279938  0.37952833  1.0
  O  O20  1  0.29802145  0.57279938  0.12047167  1.0
  O  O21  1  0.29802145  0.42720062  0.87952833  1.0
  O  O22  1  0.70197855  0.57279938  0.37952833  1.0
  O  O23  1  0.70197855  0.42720062  0.62047167  1.0
  O  O24  1  0.00000000  0.33927579  0.75000000  1.0
  O  O25  1  0.00000000  0.66072421  0.25000000  1.0
  O  O26  1  0.50000000  0.28150573  0.08359072  1.0
  O  O27  1  0.50000000  0.71849427  0.91640928  1.0
  O  O28  1  0.00000000  0.78150573  0.91640928  1.0
  O  O29  1  0.00000000  0.21849427  0.08359072  1.0
  O  O30  1  0.20197855  0.92720062  0.37952833  1.0
  O  O31  1  0.20197855  0.07279938  0.62047167  1.0
  O  O32  1  0.79802145  0.92720062  0.12047167  1.0
  O  O33  1  0.79802145  0.07279938  0.87952833  1.0
  O  O34  1  0.79802145  0.07279938  0.62047167  1.0
  O  O35  1  0.79802145  0.92720062  0.37952833  1.0
  O  O36  1  0.20197855  0.07279938  0.87952833  1.0
  O  O37  1  0.20197855  0.92720062  0.12047167  1.0
  O  O38  1  0.50000000  0.83927579  0.25000000  1.0
  O  O39  1  0.50000000  0.16072421  0.75000000  1.0
  O  O40  1  0.00000000  0.78150573  0.58359072  1.0
  O  O41  1  0.00000000  0.21849427  0.41640928  1.0
  O  O42  1  0.50000000  0.28150573  0.41640928  1.0
  O  O43  1  0.50000000  0.71849427  0.58359072  1.0
