# generated using pymatgen
data_Ag6HgNO11
_symmetry_space_group_name_H-M   'P 1'
_cell_length_a   9.94512800
_cell_length_b   10.14599200
_cell_length_c   10.27413000
_cell_angle_alpha   90.00000000
_cell_angle_beta   90.00000000
_cell_angle_gamma   90.00000000
_symmetry_Int_Tables_number   1
_chemical_formula_structural   Ag6HgNO11
_chemical_formula_sum   'Ag24 Hg4 N4 O44'
_cell_volume   1036.69248251
_cell_formula_units_Z   4
loop_
 _symmetry_equiv_pos_site_id
 _symmetry_equiv_pos_as_xyz
  1  'x, y, z'
loop_
 _atom_site_type_symbol
 _atom_site_label
 _atom_site_symmetry_multiplicity
 _atom_site_fract_x
 _atom_site_fract_y
 _atom_site_fract_z
 _atom_site_occupancy
  Ag  Ag0  1  0.75190600  0.00000000  0.25225800  1.0
  Ag  Ag1  1  0.75000000  0.75000000  0.00126400  1.0
  Ag  Ag2  1  0.50000000  0.24880700  0.24855100  1.0
  Ag  Ag3  1  0.24809400  0.00000000  0.25225800  1.0
  Ag  Ag4  1  0.75000000  0.25000000  0.00126400  1.0
  Ag  Ag5  1  0.50000000  0.75119300  0.24855100  1.0
  Ag  Ag6  1  0.75190600  0.50000000  0.75225800  1.0
  Ag  Ag7  1  0.75000000  0.25000000  0.50126400  1.0
  Ag  Ag8  1  0.50000000  0.74880700  0.74855100  1.0
  Ag  Ag9  1  0.24809400  0.50000000  0.75225800  1.0
  Ag  Ag10  1  0.75000000  0.75000000  0.50126400  1.0
  Ag  Ag11  1  0.50000000  0.25119300  0.74855100  1.0
  Ag  Ag12  1  0.25190600  0.00000000  0.75225800  1.0
  Ag  Ag13  1  0.25000000  0.75000000  0.50126400  1.0
  Ag  Ag14  1  0.00000000  0.24880700  0.74855100  1.0
  Ag  Ag15  1  0.74809400  0.00000000  0.75225800  1.0
  Ag  Ag16  1  0.25000000  0.25000000  0.50126400  1.0
  Ag  Ag17  1  0.00000000  0.75119300  0.74855100  1.0
  Ag  Ag18  1  0.25190600  0.50000000  0.25225800  1.0
  Ag  Ag19  1  0.25000000  0.25000000  0.00126400  1.0
  Ag  Ag20  1  0.00000000  0.74880700  0.24855100  1.0
  Ag  Ag21  1  0.74809400  0.50000000  0.25225800  1.0
  Ag  Ag22  1  0.25000000  0.75000000  0.00126400  1.0
  Ag  Ag23  1  0.00000000  0.25119300  0.24855100  1.0
  Hg  Hg24  1  0.50000000  0.00000000  0.49897700  1.0
  Hg  Hg25  1  0.50000000  0.50000000  0.99897700  1.0
  Hg  Hg26  1  0.00000000  0.00000000  0.99897700  1.0
  Hg  Hg27  1  0.00000000  0.50000000  0.49897700  1.0
  N  N28  1  0.50000000  0.00000000  0.02733800  1.0
  N  N29  1  0.50000000  0.50000000  0.52733800  1.0
  N  N30  1  0.00000000  0.00000000  0.52733800  1.0
  N  N31  1  0.00000000  0.50000000  0.02733800  1.0
  O  O32  1  0.85671750  0.85940150  0.14066900  1.0
  O  O33  1  0.85512100  0.64193700  0.36095800  1.0
  O  O34  1  0.64328250  0.64059850  0.14066900  1.0
  O  O35  1  0.64487900  0.85806300  0.36095800  1.0
  O  O36  1  0.64487900  0.14193700  0.36095800  1.0
  O  O37  1  0.64328250  0.35940150  0.14066900  1.0
  O  O38  1  0.85512100  0.35806300  0.36095800  1.0
  O  O39  1  0.85671750  0.14059850  0.14066900  1.0
  O  O40  1  0.00000000  0.89130450  0.46725850  1.0
  O  O41  1  0.50000000  0.00000000  0.15111600  1.0
  O  O42  1  0.00000000  0.10869550  0.46725850  1.0
  O  O43  1  0.85671750  0.35940150  0.64066900  1.0
  O  O44  1  0.85512100  0.14193700  0.86095800  1.0
  O  O45  1  0.64328250  0.14059850  0.64066900  1.0
  O  O46  1  0.64487900  0.35806300  0.86095800  1.0
  O  O47  1  0.64487900  0.64193700  0.86095800  1.0
  O  O48  1  0.64328250  0.85940150  0.64066900  1.0
  O  O49  1  0.85512100  0.85806300  0.86095800  1.0
  O  O50  1  0.85671750  0.64059850  0.64066900  1.0
  O  O51  1  0.00000000  0.39130450  0.96725850  1.0
  O  O52  1  0.50000000  0.50000000  0.65111600  1.0
  O  O53  1  0.00000000  0.60869550  0.96725850  1.0
  O  O54  1  0.35671750  0.85940150  0.64066900  1.0
  O  O55  1  0.35512100  0.64193700  0.86095800  1.0
  O  O56  1  0.14328250  0.64059850  0.64066900  1.0
  O  O57  1  0.14487900  0.85806300  0.86095800  1.0
  O  O58  1  0.14487900  0.14193700  0.86095800  1.0
  O  O59  1  0.14328250  0.35940150  0.64066900  1.0
  O  O60  1  0.35512100  0.35806300  0.86095800  1.0
  O  O61  1  0.35671750  0.14059850  0.64066900  1.0
  O  O62  1  0.50000000  0.89130450  0.96725850  1.0
  O  O63  1  0.00000000  0.00000000  0.65111600  1.0
  O  O64  1  0.50000000  0.10869550  0.96725850  1.0
  O  O65  1  0.35671750  0.35940150  0.14066900  1.0
  O  O66  1  0.35512100  0.14193700  0.36095800  1.0
  O  O67  1  0.14328250  0.14059850  0.14066900  1.0
  O  O68  1  0.14487900  0.35806300  0.36095800  1.0
  O  O69  1  0.14487900  0.64193700  0.36095800  1.0
  O  O70  1  0.14328250  0.85940150  0.14066900  1.0
  O  O71  1  0.35512100  0.85806300  0.36095800  1.0
  O  O72  1  0.35671750  0.64059850  0.14066900  1.0
  O  O73  1  0.50000000  0.39130450  0.46725850  1.0
  O  O74  1  0.00000000  0.50000000  0.15111600  1.0
  O  O75  1  0.50000000  0.60869550  0.46725850  1.0
