# generated using pymatgen
data_Ag5Au3S4
_symmetry_space_group_name_H-M   'P 1'
_cell_length_a   4.74221885
_cell_length_b   5.85148440
_cell_length_c   11.89699016
_cell_angle_alpha   82.63773356
_cell_angle_beta   87.50047294
_cell_angle_gamma   84.04658801
_symmetry_Int_Tables_number   1
_chemical_formula_structural   Ag5Au3S4
_chemical_formula_sum   'Ag5 Au3 S4'
_cell_volume   325.48841637
_cell_formula_units_Z   1
loop_
 _symmetry_equiv_pos_site_id
 _symmetry_equiv_pos_as_xyz
  1  'x, y, z'
loop_
 _atom_site_type_symbol
 _atom_site_label
 _atom_site_symmetry_multiplicity
 _atom_site_fract_x
 _atom_site_fract_y
 _atom_site_fract_z
 _atom_site_occupancy
  Ag  Ag0  1  0.03657700  0.87896700  0.58166400  1.0
  Ag  Ag1  1  0.26983500  0.63226200  0.18847300  1.0
  Ag  Ag2  1  0.51370200  0.09858700  0.99894600  1.0
  Ag  Ag3  1  0.10663400  0.36509800  0.51454800  1.0
  Ag  Ag4  1  0.64203800  0.26020300  0.67455300  1.0
  Au  Au5  1  0.90461100  0.27711300  0.14147500  1.0
  Au  Au6  1  0.03747700  0.22390200  0.85726500  1.0
  Au  Au7  1  0.64098500  0.26843900  0.39508100  1.0
  S  S8  1  0.02650600  0.97449000  0.03048700  1.0
  S  S9  1  0.53651800  0.96319100  0.53167200  1.0
  S  S10  1  0.15273100  0.48936900  0.70523300  1.0
  S  S11  1  0.75738400  0.56838100  0.25560200  1.0
