# generated using pymatgen
data_Ag3AsO4
_symmetry_space_group_name_H-M   'P 1'
_cell_length_a   8.67568829
_cell_length_b   8.67568829
_cell_length_c   10.66260979
_cell_angle_alpha   90.00000000
_cell_angle_beta   90.00000000
_cell_angle_gamma   120.00000000
_symmetry_Int_Tables_number   1
_chemical_formula_structural   Ag3AsO4
_chemical_formula_sum   'Ag18 As6 O24'
_cell_volume   695.02756199
_cell_formula_units_Z   6
loop_
 _symmetry_equiv_pos_site_id
 _symmetry_equiv_pos_as_xyz
  1  'x, y, z'
loop_
 _atom_site_type_symbol
 _atom_site_label
 _atom_site_symmetry_multiplicity
 _atom_site_fract_x
 _atom_site_fract_y
 _atom_site_fract_z
 _atom_site_occupancy
  Ag  Ag0  1  0.64001759  0.57104979  0.07266632  1.0
  Ag  Ag1  1  0.93103219  0.35998241  0.07266632  1.0
  Ag  Ag2  1  0.42895021  0.06896781  0.07266632  1.0
  Ag  Ag3  1  0.30668426  0.40230114  0.90599965  1.0
  Ag  Ag4  1  0.59769886  0.90438312  0.90599965  1.0
  Ag  Ag5  1  0.09561688  0.69331574  0.90599965  1.0
  Ag  Ag6  1  0.30668426  0.90438312  0.40599965  1.0
  Ag  Ag7  1  0.59769886  0.69331574  0.40599965  1.0
  Ag  Ag8  1  0.09561688  0.40230114  0.40599965  1.0
  Ag  Ag9  1  0.97335093  0.73563447  0.23933298  1.0
  Ag  Ag10  1  0.26436553  0.23771645  0.23933298  1.0
  Ag  Ag11  1  0.76228355  0.02664907  0.23933298  1.0
  Ag  Ag12  1  0.97335093  0.23771645  0.73933298  1.0
  Ag  Ag13  1  0.26436553  0.02664907  0.73933298  1.0
  Ag  Ag14  1  0.76228355  0.73563447  0.73933298  1.0
  Ag  Ag15  1  0.64001759  0.06896781  0.57266632  1.0
  Ag  Ag16  1  0.93103219  0.57104979  0.57266632  1.0
  Ag  Ag17  1  0.42895021  0.35998241  0.57266632  1.0
  As  As18  1  0.33333333  0.66666667  0.16795620  1.0
  As  As19  1  0.33333333  0.66666667  0.66795620  1.0
  As  As20  1  0.00000000  0.00000000  0.50128953  1.0
  As  As21  1  0.00000000  0.00000000  0.00128953  1.0
  As  As22  1  0.66666667  0.33333333  0.83462286  1.0
  As  As23  1  0.66666667  0.33333333  0.33462286  1.0
  O  O24  1  0.45105409  0.57047152  0.22324314  1.0
  O  O25  1  0.42952848  0.88058258  0.22324314  1.0
  O  O26  1  0.33333333  0.66666667  0.00874876  1.0
  O  O27  1  0.11941742  0.54894591  0.22324314  1.0
  O  O28  1  0.33333333  0.66666667  0.50874876  1.0
  O  O29  1  0.11772076  0.21391591  0.05657647  1.0
  O  O30  1  0.09619515  0.88227924  0.05657647  1.0
  O  O31  1  0.78608409  0.90380485  0.05657647  1.0
  O  O32  1  0.11772076  0.90380485  0.55657647  1.0
  O  O33  1  0.09619515  0.21391591  0.55657647  1.0
  O  O34  1  0.00000000  0.00000000  0.34208209  1.0
  O  O35  1  0.78608409  0.88227924  0.55657647  1.0
  O  O36  1  0.00000000  0.00000000  0.84208209  1.0
  O  O37  1  0.78438743  0.54724924  0.38990980  1.0
  O  O38  1  0.76286182  0.21561257  0.38990980  1.0
  O  O39  1  0.45275076  0.23713818  0.38990980  1.0
  O  O40  1  0.78438743  0.23713818  0.88990980  1.0
  O  O41  1  0.76286182  0.54724924  0.88990980  1.0
  O  O42  1  0.66666667  0.33333333  0.67541542  1.0
  O  O43  1  0.45275076  0.21561257  0.88990980  1.0
  O  O44  1  0.66666667  0.33333333  0.17541542  1.0
  O  O45  1  0.45105409  0.88058258  0.72324314  1.0
  O  O46  1  0.42952848  0.54894591  0.72324314  1.0
  O  O47  1  0.11941742  0.57047152  0.72324314  1.0
