# generated using pymatgen
data_Ag(MoSe)3
_symmetry_space_group_name_H-M   'P 1'
_cell_length_a   8.46251748
_cell_length_b   8.46251748
_cell_length_c   4.49059834
_cell_angle_alpha   90.00000000
_cell_angle_beta   90.00000000
_cell_angle_gamma   120.00000000
_symmetry_Int_Tables_number   1
_chemical_formula_structural   Ag(MoSe)3
_chemical_formula_sum   'Ag2 Mo6 Se6'
_cell_volume   278.50564400
_cell_formula_units_Z   2
loop_
 _symmetry_equiv_pos_site_id
 _symmetry_equiv_pos_as_xyz
  1  'x, y, z'
loop_
 _atom_site_type_symbol
 _atom_site_label
 _atom_site_symmetry_multiplicity
 _atom_site_fract_x
 _atom_site_fract_y
 _atom_site_fract_z
 _atom_site_occupancy
  Ag  Ag0  1  0.33333333  0.66666667  0.25000000  1.0
  Ag  Ag1  1  0.66666667  0.33333333  0.75000000  1.0
  Mo  Mo2  1  0.05771192  0.20238677  0.25000000  1.0
  Mo  Mo3  1  0.14467485  0.94228808  0.25000000  1.0
  Mo  Mo4  1  0.79761323  0.85532515  0.25000000  1.0
  Mo  Mo5  1  0.94228808  0.79761323  0.75000000  1.0
  Mo  Mo6  1  0.85532515  0.05771192  0.75000000  1.0
  Mo  Mo7  1  0.20238677  0.14467485  0.75000000  1.0
  Se  Se8  1  0.71081183  0.11034345  0.25000000  1.0
  Se  Se9  1  0.39953162  0.28918817  0.25000000  1.0
  Se  Se10  1  0.88965655  0.60046838  0.25000000  1.0
  Se  Se11  1  0.28918817  0.88965655  0.75000000  1.0
  Se  Se12  1  0.60046838  0.71081183  0.75000000  1.0
  Se  Se13  1  0.11034345  0.39953162  0.75000000  1.0
