# generated using pymatgen
data_Ac3Tb
_symmetry_space_group_name_H-M   'P 1'
_cell_length_a   7.81340952
_cell_length_b   7.81340952
_cell_length_c   6.36717100
_cell_angle_alpha   90.00000000
_cell_angle_beta   90.00000000
_cell_angle_gamma   120.00000000
_symmetry_Int_Tables_number   1
_chemical_formula_structural   Ac3Tb
_chemical_formula_sum   'Ac6 Tb2'
_cell_volume   336.63426548
_cell_formula_units_Z   2
loop_
 _symmetry_equiv_pos_site_id
 _symmetry_equiv_pos_as_xyz
  1  'x, y, z'
loop_
 _atom_site_type_symbol
 _atom_site_label
 _atom_site_symmetry_multiplicity
 _atom_site_fract_x
 _atom_site_fract_y
 _atom_site_fract_z
 _atom_site_occupancy
  Ac  Ac0  1  0.16933550  0.33867100  0.25000000  1.0
  Ac  Ac1  1  0.66132900  0.83066450  0.25000000  1.0
  Ac  Ac2  1  0.16933550  0.83066450  0.25000000  1.0
  Ac  Ac3  1  0.83066450  0.66132900  0.75000000  1.0
  Ac  Ac4  1  0.33867100  0.16933550  0.75000000  1.0
  Ac  Ac5  1  0.83066450  0.16933550  0.75000000  1.0
  Tb  Tb6  1  0.33333333  0.66666667  0.75000000  1.0
  Tb  Tb7  1  0.66666667  0.33333333  0.25000000  1.0
