# generated using pymatgen
data_Ac3Pm
_symmetry_space_group_name_H-M   'P 1'
_cell_length_a   7.97812321
_cell_length_b   7.97812321
_cell_length_c   6.28481113
_cell_angle_alpha   90.00000000
_cell_angle_beta   90.00000000
_cell_angle_gamma   120.00000000
_symmetry_Int_Tables_number   1
_chemical_formula_structural   Ac3Pm
_chemical_formula_sum   'Ac6 Pm2'
_cell_volume   346.43705706
_cell_formula_units_Z   2
loop_
 _symmetry_equiv_pos_site_id
 _symmetry_equiv_pos_as_xyz
  1  'x, y, z'
loop_
 _atom_site_type_symbol
 _atom_site_label
 _atom_site_symmetry_multiplicity
 _atom_site_fract_x
 _atom_site_fract_y
 _atom_site_fract_z
 _atom_site_occupancy
  Ac  Ac0  1  0.83052763  0.16947237  0.75000000  1.0
  Ac  Ac1  1  0.33894474  0.16947237  0.75000000  1.0
  Ac  Ac2  1  0.83052763  0.66105526  0.75000000  1.0
  Ac  Ac3  1  0.16947237  0.83052763  0.25000000  1.0
  Ac  Ac4  1  0.66105526  0.83052763  0.25000000  1.0
  Ac  Ac5  1  0.16947237  0.33894474  0.25000000  1.0
  Pm  Pm6  1  0.66666667  0.33333333  0.25000000  1.0
  Pm  Pm7  1  0.33333333  0.66666667  0.75000000  1.0
