# generated using pymatgen
data_Ac2Mg
_symmetry_space_group_name_H-M   'P 1'
_cell_length_a   14.33620810
_cell_length_b   4.12675042
_cell_length_c   8.27031451
_cell_angle_alpha   90.00000000
_cell_angle_beta   106.76829426
_cell_angle_gamma   90.00000000
_symmetry_Int_Tables_number   1
_chemical_formula_structural   Ac2Mg
_chemical_formula_sum   'Ac8 Mg4'
_cell_volume   468.48308650
_cell_formula_units_Z   4
loop_
 _symmetry_equiv_pos_site_id
 _symmetry_equiv_pos_as_xyz
  1  'x, y, z'
loop_
 _atom_site_type_symbol
 _atom_site_label
 _atom_site_symmetry_multiplicity
 _atom_site_fract_x
 _atom_site_fract_y
 _atom_site_fract_z
 _atom_site_occupancy
  Ac  Ac0  1  0.85190528  0.00000000  0.42876558  1.0
  Ac  Ac1  1  0.64809472  0.50000000  0.57123442  1.0
  Ac  Ac2  1  0.84774264  0.00000000  0.92105562  1.0
  Ac  Ac3  1  0.65225736  0.50000000  0.07894438  1.0
  Ac  Ac4  1  0.35190528  0.50000000  0.42876558  1.0
  Ac  Ac5  1  0.14809472  0.00000000  0.57123442  1.0
  Ac  Ac6  1  0.34774264  0.50000000  0.92105562  1.0
  Ac  Ac7  1  0.15225736  0.00000000  0.07894438  1.0
  Mg  Mg8  1  0.99683677  0.50000000  0.24316616  1.0
  Mg  Mg9  1  0.50316323  0.00000000  0.75683384  1.0
  Mg  Mg10  1  0.49683677  0.00000000  0.24316616  1.0
  Mg  Mg11  1  0.00316323  0.50000000  0.75683384  1.0
