# generated using pymatgen
data_Ag2Te(H2O3)2
_symmetry_space_group_name_H-M   'P 1'
_cell_length_a   6.53585000
_cell_length_b   9.10883800
_cell_length_c   18.78333800
_cell_angle_alpha   90.00000000
_cell_angle_beta   90.00000000
_cell_angle_gamma   90.00000000
_symmetry_Int_Tables_number   1
_chemical_formula_structural   Ag2Te(H2O3)2
_chemical_formula_sum   'Ag16 Te8 H32 O48'
_cell_volume   1118.24722275
_cell_formula_units_Z   8
loop_
 _symmetry_equiv_pos_site_id
 _symmetry_equiv_pos_as_xyz
  1  'x, y, z'
loop_
 _atom_site_type_symbol
 _atom_site_label
 _atom_site_symmetry_multiplicity
 _atom_site_fract_x
 _atom_site_fract_y
 _atom_site_fract_z
 _atom_site_occupancy
  Ag  Ag0  1  0.47340000  0.76448700  0.57771500  1.0
  Ag  Ag1  1  0.52660000  0.76448700  0.42228500  1.0
  Ag  Ag2  1  0.22340000  0.51448700  0.67228500  1.0
  Ag  Ag3  1  0.77660000  0.51448700  0.32771500  1.0
  Ag  Ag4  1  0.47340000  0.26448700  0.07771500  1.0
  Ag  Ag5  1  0.52660000  0.26448700  0.92228500  1.0
  Ag  Ag6  1  0.22340000  0.01448700  0.17228500  1.0
  Ag  Ag7  1  0.77660000  0.01448700  0.82771500  1.0
  Ag  Ag8  1  0.97340000  0.26448700  0.57771500  1.0
  Ag  Ag9  1  0.02660000  0.26448700  0.42228500  1.0
  Ag  Ag10  1  0.72340000  0.01448700  0.67228500  1.0
  Ag  Ag11  1  0.27660000  0.01448700  0.32771500  1.0
  Ag  Ag12  1  0.97340000  0.76448700  0.07771500  1.0
  Ag  Ag13  1  0.02660000  0.76448700  0.92228500  1.0
  Ag  Ag14  1  0.72340000  0.51448700  0.17228500  1.0
  Ag  Ag15  1  0.27660000  0.51448700  0.82771500  1.0
  Te  Te16  1  0.50000000  0.24737300  0.50000000  1.0
  Te  Te17  1  0.75000000  0.99737300  0.25000000  1.0
  Te  Te18  1  0.50000000  0.74737300  0.00000000  1.0
  Te  Te19  1  0.75000000  0.49737300  0.75000000  1.0
  Te  Te20  1  0.00000000  0.74737300  0.50000000  1.0
  Te  Te21  1  0.25000000  0.49737300  0.25000000  1.0
  Te  Te22  1  0.00000000  0.24737300  0.00000000  1.0
  Te  Te23  1  0.25000000  0.99737300  0.75000000  1.0
  H  H24  1  0.22099200  0.51364750  0.51013150  1.0
  H  H25  1  0.77900800  0.51364750  0.48986850  1.0
  H  H26  1  0.47099200  0.76364750  0.73986850  1.0
  H  H27  1  0.52900800  0.76364750  0.26013150  1.0
  H  H28  1  0.37113600  0.19588900  0.63045700  1.0
  H  H29  1  0.62886400  0.19588900  0.36954300  1.0
  H  H30  1  0.62113600  0.44588900  0.61954300  1.0
  H  H31  1  0.37886400  0.44588900  0.38045700  1.0
  H  H32  1  0.22099200  0.01364750  0.01013150  1.0
  H  H33  1  0.77900800  0.01364750  0.98986850  1.0
  H  H34  1  0.47099200  0.26364750  0.23986850  1.0
  H  H35  1  0.52900800  0.26364750  0.76013150  1.0
  H  H36  1  0.37113600  0.69588900  0.13045700  1.0
  H  H37  1  0.62886400  0.69588900  0.86954300  1.0
  H  H38  1  0.62113600  0.94588900  0.11954300  1.0
  H  H39  1  0.37886400  0.94588900  0.88045700  1.0
  H  H40  1  0.72099200  0.01364750  0.51013150  1.0
  H  H41  1  0.27900800  0.01364750  0.48986850  1.0
  H  H42  1  0.97099200  0.26364750  0.73986850  1.0
  H  H43  1  0.02900800  0.26364750  0.26013150  1.0
  H  H44  1  0.87113600  0.69588900  0.63045700  1.0
  H  H45  1  0.12886400  0.69588900  0.36954300  1.0
  H  H46  1  0.12113600  0.94588900  0.61954300  1.0
  H  H47  1  0.87886400  0.94588900  0.38045700  1.0
  H  H48  1  0.72099200  0.51364750  0.01013150  1.0
  H  H49  1  0.27900800  0.51364750  0.98986850  1.0
  H  H50  1  0.97099200  0.76364750  0.23986850  1.0
  H  H51  1  0.02900800  0.76364750  0.76013150  1.0
  H  H52  1  0.87113600  0.19588900  0.13045700  1.0
  H  H53  1  0.12886400  0.19588900  0.86954300  1.0
  H  H54  1  0.12113600  0.44588900  0.11954300  1.0
  H  H55  1  0.87886400  0.44588900  0.88045700  1.0
  O  O56  1  0.68122300  0.38746450  0.54230950  1.0
  O  O57  1  0.31877700  0.38746450  0.45769050  1.0
  O  O58  1  0.93122300  0.63746450  0.70769050  1.0
  O  O59  1  0.06877700  0.63746450  0.29230950  1.0
  O  O60  1  0.16530250  0.58796900  0.54591450  1.0
  O  O61  1  0.83469750  0.58796900  0.45408550  1.0
  O  O62  1  0.41530250  0.83796900  0.70408550  1.0
  O  O63  1  0.58469750  0.83796900  0.29591450  1.0
  O  O64  1  0.31775550  0.24376650  0.58472300  1.0
  O  O65  1  0.68224450  0.24376650  0.41527700  1.0
  O  O66  1  0.56775550  0.49376650  0.66527700  1.0
  O  O67  1  0.43224450  0.49376650  0.33472300  1.0
  O  O68  1  0.68122300  0.88746450  0.04230950  1.0
  O  O69  1  0.31877700  0.88746450  0.95769050  1.0
  O  O70  1  0.93122300  0.13746450  0.20769050  1.0
  O  O71  1  0.06877700  0.13746450  0.79230950  1.0
  O  O72  1  0.16530250  0.08796900  0.04591450  1.0
  O  O73  1  0.83469750  0.08796900  0.95408550  1.0
  O  O74  1  0.41530250  0.33796900  0.20408550  1.0
  O  O75  1  0.58469750  0.33796900  0.79591450  1.0
  O  O76  1  0.31775550  0.74376650  0.08472300  1.0
  O  O77  1  0.68224450  0.74376650  0.91527700  1.0
  O  O78  1  0.56775550  0.99376650  0.16527700  1.0
  O  O79  1  0.43224450  0.99376650  0.83472300  1.0
  O  O80  1  0.18122300  0.88746450  0.54230950  1.0
  O  O81  1  0.81877700  0.88746450  0.45769050  1.0
  O  O82  1  0.43122300  0.13746450  0.70769050  1.0
  O  O83  1  0.56877700  0.13746450  0.29230950  1.0
  O  O84  1  0.66530250  0.08796900  0.54591450  1.0
  O  O85  1  0.33469750  0.08796900  0.45408550  1.0
  O  O86  1  0.91530250  0.33796900  0.70408550  1.0
  O  O87  1  0.08469750  0.33796900  0.29591450  1.0
  O  O88  1  0.81775550  0.74376650  0.58472300  1.0
  O  O89  1  0.18224450  0.74376650  0.41527700  1.0
  O  O90  1  0.06775550  0.99376650  0.66527700  1.0
  O  O91  1  0.93224450  0.99376650  0.33472300  1.0
  O  O92  1  0.18122300  0.38746450  0.04230950  1.0
  O  O93  1  0.81877700  0.38746450  0.95769050  1.0
  O  O94  1  0.43122300  0.63746450  0.20769050  1.0
  O  O95  1  0.56877700  0.63746450  0.79230950  1.0
  O  O96  1  0.66530250  0.58796900  0.04591450  1.0
  O  O97  1  0.33469750  0.58796900  0.95408550  1.0
  O  O98  1  0.91530250  0.83796900  0.20408550  1.0
  O  O99  1  0.08469750  0.83796900  0.79591450  1.0
  O  O100  1  0.81775550  0.24376650  0.08472300  1.0
  O  O101  1  0.18224450  0.24376650  0.91527700  1.0
  O  O102  1  0.06775550  0.49376650  0.16527700  1.0
  O  O103  1  0.93224450  0.49376650  0.83472300  1.0
