# generated using pymatgen
data_Ag2AsS2
_symmetry_space_group_name_H-M   'P 1'
_cell_length_a   6.92834000
_cell_length_b   13.19459200
_cell_length_c   9.75737418
_cell_angle_alpha   90.00000000
_cell_angle_beta   98.70095984
_cell_angle_gamma   90.00000000
_symmetry_Int_Tables_number   1
_chemical_formula_structural   Ag2AsS2
_chemical_formula_sum   'Ag16 As8 S16'
_cell_volume   881.72060894
_cell_formula_units_Z   8
loop_
 _symmetry_equiv_pos_site_id
 _symmetry_equiv_pos_as_xyz
  1  'x, y, z'
loop_
 _atom_site_type_symbol
 _atom_site_label
 _atom_site_symmetry_multiplicity
 _atom_site_fract_x
 _atom_site_fract_y
 _atom_site_fract_z
 _atom_site_occupancy
  Ag  Ag0  1  0.92053400  0.59442400  0.23713000  1.0
  Ag  Ag1  1  0.42053400  0.40557600  0.23713000  1.0
  Ag  Ag2  1  0.22372800  0.91119200  0.04131500  1.0
  Ag  Ag3  1  0.72372800  0.08880800  0.04131500  1.0
  Ag  Ag4  1  0.62464400  0.90696500  0.69331100  1.0
  Ag  Ag5  1  0.12464400  0.09303500  0.69331100  1.0
  Ag  Ag6  1  0.13029600  0.89270100  0.35782800  1.0
  Ag  Ag7  1  0.63029600  0.10729900  0.35782800  1.0
  Ag  Ag8  1  0.39838900  0.60560300  0.56674400  1.0
  Ag  Ag9  1  0.89838900  0.39439700  0.56674400  1.0
  Ag  Ag10  1  0.80684500  0.79179600  0.95990200  1.0
  Ag  Ag11  1  0.30684500  0.20820400  0.95990200  1.0
  Ag  Ag12  1  0.15137200  0.49439100  0.84024000  1.0
  Ag  Ag13  1  0.65137200  0.50560900  0.84024000  1.0
  Ag  Ag14  1  0.35653300  0.68493500  0.96238600  1.0
  Ag  Ag15  1  0.85653300  0.31506500  0.96238600  1.0
  As  As16  1  0.44059600  0.68718600  0.31362200  1.0
  As  As17  1  0.94059600  0.31281400  0.31362200  1.0
  As  As18  1  0.85107400  0.68271900  0.61674100  1.0
  As  As19  1  0.35107400  0.31728100  0.61674100  1.0
  As  As20  1  0.68518700  0.83300700  0.30704100  1.0
  As  As21  1  0.18518700  0.16699300  0.30704100  1.0
  As  As22  1  0.10740400  0.82317300  0.62625600  1.0
  As  As23  1  0.60740400  0.17682700  0.62625600  1.0
  S  S24  1  0.54869900  0.58160300  0.15664900  1.0
  S  S25  1  0.04869900  0.41839700  0.15664900  1.0
  S  S26  1  0.99638900  0.91843000  0.79323500  1.0
  S  S27  1  0.49638900  0.08157000  0.79323500  1.0
  S  S28  1  0.15317700  0.74472000  0.19070700  1.0
  S  S29  1  0.65317700  0.25528000  0.19070700  1.0
  S  S30  1  0.38990300  0.75355900  0.73278400  1.0
  S  S31  1  0.88990300  0.24644100  0.73278400  1.0
  S  S32  1  0.91063900  0.63060300  0.84639000  1.0
  S  S33  1  0.41063900  0.36939700  0.84639000  1.0
  S  S34  1  0.01886100  0.56774100  0.51185000  1.0
  S  S35  1  0.51886100  0.43225900  0.51185000  1.0
  S  S36  1  0.60324000  0.89903600  0.08979700  1.0
  S  S37  1  0.10324000  0.10096400  0.08979700  1.0
  S  S38  1  0.51159100  0.93484200  0.42837200  1.0
  S  S39  1  0.01159100  0.06515800  0.42837200  1.0
