# generated using pymatgen
data_Ag3P3O10
_symmetry_space_group_name_H-M   'P 1'
_cell_length_a   11.59054999
_cell_length_b   10.72596199
_cell_length_c   9.23702572
_cell_angle_alpha   90.00000000
_cell_angle_beta   125.50930243
_cell_angle_gamma   90.00000000
_symmetry_Int_Tables_number   1
_chemical_formula_structural   Ag3P3O10
_chemical_formula_sum   'Ag12 P12 O40'
_cell_volume   934.77734908
_cell_formula_units_Z   4
loop_
 _symmetry_equiv_pos_site_id
 _symmetry_equiv_pos_as_xyz
  1  'x, y, z'
loop_
 _atom_site_type_symbol
 _atom_site_label
 _atom_site_symmetry_multiplicity
 _atom_site_fract_x
 _atom_site_fract_y
 _atom_site_fract_z
 _atom_site_occupancy
  Ag  Ag0  1  0.33399750  0.33908450  0.94950300  1.0
  Ag  Ag1  1  0.66600250  0.33908450  0.05049700  1.0
  Ag  Ag2  1  0.66600250  0.66091550  0.05049700  1.0
  Ag  Ag3  1  0.33399750  0.66091550  0.94950300  1.0
  Ag  Ag4  1  0.00000000  0.17372500  0.50000000  1.0
  Ag  Ag5  1  0.00000000  0.82627500  0.50000000  1.0
  Ag  Ag6  1  0.83399750  0.83908450  0.94950300  1.0
  Ag  Ag7  1  0.16600250  0.83908450  0.05049700  1.0
  Ag  Ag8  1  0.16600250  0.16091550  0.05049700  1.0
  Ag  Ag9  1  0.83399750  0.16091550  0.94950300  1.0
  Ag  Ag10  1  0.50000000  0.67372500  0.50000000  1.0
  Ag  Ag11  1  0.50000000  0.32627500  0.50000000  1.0
  P  P12  1  0.92370300  0.36145300  0.73587400  1.0
  P  P13  1  0.07629700  0.36145300  0.26412600  1.0
  P  P14  1  0.07629700  0.63854700  0.26412600  1.0
  P  P15  1  0.92370300  0.63854700  0.73587400  1.0
  P  P16  1  0.71540100  0.50000000  0.41911100  1.0
  P  P17  1  0.28459900  0.50000000  0.58088900  1.0
  P  P18  1  0.42370300  0.86145300  0.73587400  1.0
  P  P19  1  0.57629700  0.86145300  0.26412600  1.0
  P  P20  1  0.57629700  0.13854700  0.26412600  1.0
  P  P21  1  0.42370300  0.13854700  0.73587400  1.0
  P  P22  1  0.21540100  0.00000000  0.41911100  1.0
  P  P23  1  0.78459900  0.00000000  0.58088900  1.0
  O  O24  1  0.98597000  0.50000000  0.80624200  1.0
  O  O25  1  0.01403000  0.50000000  0.19375800  1.0
  O  O26  1  0.82178250  0.38258550  0.52122200  1.0
  O  O27  1  0.17821750  0.38258550  0.47877800  1.0
  O  O28  1  0.17821750  0.61741450  0.47877800  1.0
  O  O29  1  0.82178250  0.61741450  0.52122200  1.0
  O  O30  1  0.83689600  0.32120100  0.80043200  1.0
  O  O31  1  0.16310400  0.32120100  0.19956800  1.0
  O  O32  1  0.16310400  0.67879900  0.19956800  1.0
  O  O33  1  0.83689600  0.67879900  0.80043200  1.0
  O  O34  1  0.04365150  0.27906050  0.77034200  1.0
  O  O35  1  0.95634850  0.27906050  0.22965800  1.0
  O  O36  1  0.95634850  0.72093950  0.22965800  1.0
  O  O37  1  0.04365150  0.72093950  0.77034200  1.0
  O  O38  1  0.67807100  0.50000000  0.23342200  1.0
  O  O39  1  0.32192900  0.50000000  0.76657800  1.0
  O  O40  1  0.60118700  0.50000000  0.44813700  1.0
  O  O41  1  0.39881300  0.50000000  0.55186300  1.0
  O  O42  1  0.67739600  0.50000000  0.94063500  1.0
  O  O43  1  0.32260400  0.50000000  0.05936500  1.0
  O  O44  1  0.48597000  0.00000000  0.80624200  1.0
  O  O45  1  0.51403000  0.00000000  0.19375800  1.0
  O  O46  1  0.32178250  0.88258550  0.52122200  1.0
  O  O47  1  0.67821750  0.88258550  0.47877800  1.0
  O  O48  1  0.67821750  0.11741450  0.47877800  1.0
  O  O49  1  0.32178250  0.11741450  0.52122200  1.0
  O  O50  1  0.33689600  0.82120100  0.80043200  1.0
  O  O51  1  0.66310400  0.82120100  0.19956800  1.0
  O  O52  1  0.66310400  0.17879900  0.19956800  1.0
  O  O53  1  0.33689600  0.17879900  0.80043200  1.0
  O  O54  1  0.54365150  0.77906050  0.77034200  1.0
  O  O55  1  0.45634850  0.77906050  0.22965800  1.0
  O  O56  1  0.45634850  0.22093950  0.22965800  1.0
  O  O57  1  0.54365150  0.22093950  0.77034200  1.0
  O  O58  1  0.17807100  0.00000000  0.23342200  1.0
  O  O59  1  0.82192900  0.00000000  0.76657800  1.0
  O  O60  1  0.10118700  0.00000000  0.44813700  1.0
  O  O61  1  0.89881300  0.00000000  0.55186300  1.0
  O  O62  1  0.17739600  0.00000000  0.94063500  1.0
  O  O63  1  0.82260400  0.00000000  0.05936500  1.0
