# generated using pymatgen
data_Ag3SBr
_symmetry_space_group_name_H-M   'P 1'
_cell_length_a   9.79770200
_cell_length_b   9.97904400
_cell_length_c   9.91709300
_cell_angle_alpha   90.00000000
_cell_angle_beta   90.00000000
_cell_angle_gamma   90.00000000
_symmetry_Int_Tables_number   1
_chemical_formula_structural   Ag3SBr
_chemical_formula_sum   'Ag24 S8 Br8'
_cell_volume   969.61103529
_cell_formula_units_Z   8
loop_
 _symmetry_equiv_pos_site_id
 _symmetry_equiv_pos_as_xyz
  1  'x, y, z'
loop_
 _atom_site_type_symbol
 _atom_site_label
 _atom_site_symmetry_multiplicity
 _atom_site_fract_x
 _atom_site_fract_y
 _atom_site_fract_z
 _atom_site_occupancy
  Ag  Ag0  1  0.23614550  0.21096950  0.25000000  1.0
  Ag  Ag1  1  0.76385450  0.21096950  0.75000000  1.0
  Ag  Ag2  1  0.76385450  0.78903050  0.75000000  1.0
  Ag  Ag3  1  0.23614550  0.78903050  0.25000000  1.0
  Ag  Ag4  1  0.74255200  0.00000000  0.97933300  1.0
  Ag  Ag5  1  0.25744800  0.00000000  0.02066700  1.0
  Ag  Ag6  1  0.74255200  0.00000000  0.52066700  1.0
  Ag  Ag7  1  0.25744800  0.00000000  0.47933300  1.0
  Ag  Ag8  1  0.50000000  0.20822400  0.00000000  1.0
  Ag  Ag9  1  0.50000000  0.20822400  0.50000000  1.0
  Ag  Ag10  1  0.50000000  0.79177600  0.00000000  1.0
  Ag  Ag11  1  0.50000000  0.79177600  0.50000000  1.0
  Ag  Ag12  1  0.73614550  0.71096950  0.25000000  1.0
  Ag  Ag13  1  0.26385450  0.71096950  0.75000000  1.0
  Ag  Ag14  1  0.26385450  0.28903050  0.75000000  1.0
  Ag  Ag15  1  0.73614550  0.28903050  0.25000000  1.0
  Ag  Ag16  1  0.24255200  0.50000000  0.97933300  1.0
  Ag  Ag17  1  0.75744800  0.50000000  0.02066700  1.0
  Ag  Ag18  1  0.24255200  0.50000000  0.52066700  1.0
  Ag  Ag19  1  0.75744800  0.50000000  0.47933300  1.0
  Ag  Ag20  1  0.00000000  0.70822400  0.00000000  1.0
  Ag  Ag21  1  0.00000000  0.70822400  0.50000000  1.0
  Ag  Ag22  1  0.00000000  0.29177600  0.00000000  1.0
  Ag  Ag23  1  0.00000000  0.29177600  0.50000000  1.0
  S  S24  1  0.25000000  0.25000000  0.00000000  1.0
  S  S25  1  0.25000000  0.75000000  0.00000000  1.0
  S  S26  1  0.25000000  0.25000000  0.50000000  1.0
  S  S27  1  0.25000000  0.75000000  0.50000000  1.0
  S  S28  1  0.75000000  0.75000000  0.00000000  1.0
  S  S29  1  0.75000000  0.25000000  0.00000000  1.0
  S  S30  1  0.75000000  0.75000000  0.50000000  1.0
  S  S31  1  0.75000000  0.25000000  0.50000000  1.0
  Br  Br32  1  0.03278100  0.00000000  0.25000000  1.0
  Br  Br33  1  0.96721900  0.00000000  0.75000000  1.0
  Br  Br34  1  0.50413900  0.00000000  0.25000000  1.0
  Br  Br35  1  0.49586100  0.00000000  0.75000000  1.0
  Br  Br36  1  0.53278100  0.50000000  0.25000000  1.0
  Br  Br37  1  0.46721900  0.50000000  0.75000000  1.0
  Br  Br38  1  0.00413900  0.50000000  0.25000000  1.0
  Br  Br39  1  0.99586100  0.50000000  0.75000000  1.0
