# generated using pymatgen
data_Ag2P2PdO7
_symmetry_space_group_name_H-M   'P 1'
_cell_length_a   16.01987001
_cell_length_b   5.81039200
_cell_length_c   8.34004967
_cell_angle_alpha   90.00000000
_cell_angle_beta   116.93559616
_cell_angle_gamma   90.00000000
_symmetry_Int_Tables_number   1
_chemical_formula_structural   Ag2P2PdO7
_chemical_formula_sum   'Ag8 P8 Pd4 O28'
_cell_volume   692.08961581
_cell_formula_units_Z   4
loop_
 _symmetry_equiv_pos_site_id
 _symmetry_equiv_pos_as_xyz
  1  'x, y, z'
loop_
 _atom_site_type_symbol
 _atom_site_label
 _atom_site_symmetry_multiplicity
 _atom_site_fract_x
 _atom_site_fract_y
 _atom_site_fract_z
 _atom_site_occupancy
  Ag  Ag0  1  0.23444400  0.85905900  0.79373300  1.0
  Ag  Ag1  1  0.26555600  0.35905900  0.70626700  1.0
  Ag  Ag2  1  0.26555600  0.64094100  0.20626700  1.0
  Ag  Ag3  1  0.23444400  0.14094100  0.29373300  1.0
  Ag  Ag4  1  0.73444400  0.35905900  0.79373300  1.0
  Ag  Ag5  1  0.76555600  0.85905900  0.70626700  1.0
  Ag  Ag6  1  0.76555600  0.14094100  0.20626700  1.0
  Ag  Ag7  1  0.73444400  0.64094100  0.29373300  1.0
  P  P8  1  0.10085650  0.34242850  0.84210100  1.0
  P  P9  1  0.39914350  0.84242850  0.65789900  1.0
  P  P10  1  0.39914350  0.15757150  0.15789900  1.0
  P  P11  1  0.10085650  0.65757150  0.34210100  1.0
  P  P12  1  0.60085650  0.84242850  0.84210100  1.0
  P  P13  1  0.89914350  0.34242850  0.65789900  1.0
  P  P14  1  0.89914350  0.65757150  0.15789900  1.0
  P  P15  1  0.60085650  0.15757150  0.34210100  1.0
  Pd  Pd16  1  0.00000000  0.00000000  0.00000000  1.0
  Pd  Pd17  1  0.00000000  0.00000000  0.50000000  1.0
  Pd  Pd18  1  0.50000000  0.50000000  0.00000000  1.0
  Pd  Pd19  1  0.50000000  0.50000000  0.50000000  1.0
  O  O20  1  0.32129500  0.02010700  0.59528100  1.0
  O  O21  1  0.17870500  0.52010700  0.90471900  1.0
  O  O22  1  0.17870500  0.47989300  0.40471900  1.0
  O  O23  1  0.32129500  0.97989300  0.09528100  1.0
  O  O24  1  0.00000000  0.47381400  0.75000000  1.0
  O  O25  1  0.00000000  0.52618600  0.25000000  1.0
  O  O26  1  0.39435100  0.68650400  0.80500100  1.0
  O  O27  1  0.10564900  0.18650400  0.69499900  1.0
  O  O28  1  0.10564900  0.81349600  0.19499900  1.0
  O  O29  1  0.39435100  0.31349600  0.30500100  1.0
  O  O30  1  0.10387550  0.79284350  0.50502200  1.0
  O  O31  1  0.39612450  0.29284350  0.99497800  1.0
  O  O32  1  0.39612450  0.70715650  0.49497800  1.0
  O  O33  1  0.10387550  0.20715650  0.00502200  1.0
  O  O34  1  0.82129500  0.52010700  0.59528100  1.0
  O  O35  1  0.67870500  0.02010700  0.90471900  1.0
  O  O36  1  0.67870500  0.97989300  0.40471900  1.0
  O  O37  1  0.82129500  0.47989300  0.09528100  1.0
  O  O38  1  0.50000000  0.97381400  0.75000000  1.0
  O  O39  1  0.50000000  0.02618600  0.25000000  1.0
  O  O40  1  0.89435100  0.18650400  0.80500100  1.0
  O  O41  1  0.60564900  0.68650400  0.69499900  1.0
  O  O42  1  0.60564900  0.31349600  0.19499900  1.0
  O  O43  1  0.89435100  0.81349600  0.30500100  1.0
  O  O44  1  0.60387550  0.29284350  0.50502200  1.0
  O  O45  1  0.89612450  0.79284350  0.99497800  1.0
  O  O46  1  0.89612450  0.20715650  0.49497800  1.0
  O  O47  1  0.60387550  0.70715650  0.00502200  1.0
