# generated using pymatgen
data_AcMg149
_symmetry_space_group_name_H-M   'P 1'
_cell_length_a   16.04661264
_cell_length_b   16.04661264
_cell_length_c   15.66822415
_cell_angle_alpha   90.00000000
_cell_angle_beta   90.00000000
_cell_angle_gamma   120.00000000
_symmetry_Int_Tables_number   1
_chemical_formula_structural   AcMg149
_chemical_formula_sum   'Ac1 Mg149'
_cell_volume   3493.95370019
_cell_formula_units_Z   1
loop_
 _symmetry_equiv_pos_site_id
 _symmetry_equiv_pos_as_xyz
  1  'x, y, z'
loop_
 _atom_site_type_symbol
 _atom_site_label
 _atom_site_symmetry_multiplicity
 _atom_site_fract_x
 _atom_site_fract_y
 _atom_site_fract_z
 _atom_site_occupancy
  Ac  Ac0  1  0.00000000  0.00000000  0.00000000  1.0
  Mg  Mg1  1  0.60029035  0.20058069  0.00000000  1.0
  Mg  Mg2  1  0.40224674  0.20112337  0.00000000  1.0
  Mg  Mg3  1  0.79887663  0.20112337  0.00000000  1.0
  Mg  Mg4  1  0.20740027  0.21161067  0.00000000  1.0
  Mg  Mg5  1  0.00421040  0.21161067  0.00000000  1.0
  Mg  Mg6  1  0.60029035  0.39970965  0.00000000  1.0
  Mg  Mg7  1  0.79941931  0.39970965  0.00000000  1.0
  Mg  Mg8  1  0.40163637  0.40204192  0.00000000  1.0
  Mg  Mg9  1  0.00040555  0.40204192  0.00000000  1.0
  Mg  Mg10  1  0.20248166  0.40496331  0.00000000  1.0
  Mg  Mg11  1  0.79887663  0.59775326  0.00000000  1.0
  Mg  Mg12  1  0.59795808  0.59836363  0.00000000  1.0
  Mg  Mg13  1  0.00040555  0.59836363  0.00000000  1.0
  Mg  Mg14  1  0.39944035  0.60055965  0.00000000  1.0
  Mg  Mg15  1  0.20111930  0.60055965  0.00000000  1.0
  Mg  Mg16  1  0.00421040  0.79259973  0.00000000  1.0
  Mg  Mg17  1  0.78838933  0.79259973  0.00000000  1.0
  Mg  Mg18  1  0.59503669  0.79751834  0.00000000  1.0
  Mg  Mg19  1  0.20248166  0.79751834  0.00000000  1.0
  Mg  Mg20  1  0.39944035  0.79888070  0.00000000  1.0
  Mg  Mg21  1  0.78838933  0.99578960  0.00000000  1.0
  Mg  Mg22  1  0.20740027  0.99578960  0.00000000  1.0
  Mg  Mg23  1  0.40163637  0.99959445  0.00000000  1.0
  Mg  Mg24  1  0.59795808  0.99959445  0.00000000  1.0
  Mg  Mg25  1  0.86899051  0.13100949  0.16395669  1.0
  Mg  Mg26  1  0.26201898  0.13100949  0.16395669  1.0
  Mg  Mg27  1  0.86899051  0.73798102  0.16395669  1.0
  Mg  Mg28  1  0.66666667  0.33333333  0.16604325  1.0
  Mg  Mg29  1  0.66757089  0.13288311  0.16645511  1.0
  Mg  Mg30  1  0.46531222  0.13288311  0.16645511  1.0
  Mg  Mg31  1  0.86711689  0.33242911  0.16645511  1.0
  Mg  Mg32  1  0.46531222  0.33242911  0.16645511  1.0
  Mg  Mg33  1  0.66757089  0.53468778  0.16645511  1.0
  Mg  Mg34  1  0.86711689  0.53468778  0.16645511  1.0
  Mg  Mg35  1  0.26729963  0.53459926  0.16747109  1.0
  Mg  Mg36  1  0.46540074  0.73270037  0.16747109  1.0
  Mg  Mg37  1  0.26729963  0.73270037  0.16747109  1.0
  Mg  Mg38  1  0.06687007  0.53343504  0.16769951  1.0
  Mg  Mg39  1  0.46656496  0.53343504  0.16769951  1.0
  Mg  Mg40  1  0.46656496  0.93312993  0.16769951  1.0
  Mg  Mg41  1  0.26868845  0.33702611  0.16826390  1.0
  Mg  Mg42  1  0.06833766  0.33702611  0.16826390  1.0
  Mg  Mg43  1  0.66297389  0.73131155  0.16826390  1.0
  Mg  Mg44  1  0.06833766  0.73131155  0.16826390  1.0
  Mg  Mg45  1  0.26868845  0.93166234  0.16826390  1.0
  Mg  Mg46  1  0.66297389  0.93166234  0.16826390  1.0
  Mg  Mg47  1  0.07020973  0.14041947  0.17478304  1.0
  Mg  Mg48  1  0.85958053  0.92979027  0.17478304  1.0
  Mg  Mg49  1  0.07020973  0.92979027  0.17478304  1.0
  Mg  Mg50  1  0.39972041  0.19986021  0.33254239  1.0
  Mg  Mg51  1  0.80013979  0.19986021  0.33254239  1.0
  Mg  Mg52  1  0.80013979  0.60027959  0.33254239  1.0
  Mg  Mg53  1  0.60003572  0.20007144  0.33277337  1.0
  Mg  Mg54  1  0.79992856  0.39996428  0.33277337  1.0
  Mg  Mg55  1  0.60003572  0.39996428  0.33277337  1.0
  Mg  Mg56  1  0.19992663  0.59996331  0.33377719  1.0
  Mg  Mg57  1  0.40003669  0.59996331  0.33377719  1.0
  Mg  Mg58  1  0.40003669  0.80007337  0.33377719  1.0
  Mg  Mg59  1  0.40072803  0.00023055  0.33392667  1.0
  Mg  Mg60  1  0.59950252  0.00023055  0.33392667  1.0
  Mg  Mg61  1  0.99976945  0.40049748  0.33392667  1.0
  Mg  Mg62  1  0.40072803  0.40049748  0.33392667  1.0
  Mg  Mg63  1  0.59950252  0.59927197  0.33392667  1.0
  Mg  Mg64  1  0.99976945  0.59927197  0.33392667  1.0
  Mg  Mg65  1  0.20016151  0.40032302  0.33420802  1.0
  Mg  Mg66  1  0.59967698  0.79983849  0.33420802  1.0
  Mg  Mg67  1  0.20016151  0.79983849  0.33420802  1.0
  Mg  Mg68  1  0.00000000  0.00000000  0.33478781  1.0
  Mg  Mg69  1  0.20160318  0.00046068  0.33480786  1.0
  Mg  Mg70  1  0.79885750  0.00046068  0.33480786  1.0
  Mg  Mg71  1  0.99953932  0.20114250  0.33480786  1.0
  Mg  Mg72  1  0.20160318  0.20114250  0.33480786  1.0
  Mg  Mg73  1  0.79885750  0.79839682  0.33480786  1.0
  Mg  Mg74  1  0.99953932  0.79839682  0.33480786  1.0
  Mg  Mg75  1  0.06677889  0.13355778  0.50000000  1.0
  Mg  Mg76  1  0.26745494  0.13372747  0.50000000  1.0
  Mg  Mg77  1  0.86627253  0.13372747  0.50000000  1.0
  Mg  Mg78  1  0.66723033  0.13431550  0.50000000  1.0
  Mg  Mg79  1  0.46708517  0.13431550  0.50000000  1.0
  Mg  Mg80  1  0.46708517  0.33276967  0.50000000  1.0
  Mg  Mg81  1  0.86568450  0.33276967  0.50000000  1.0
  Mg  Mg82  1  0.66666667  0.33333333  0.50000000  1.0
  Mg  Mg83  1  0.06709778  0.33400072  0.50000000  1.0
  Mg  Mg84  1  0.26690294  0.33400072  0.50000000  1.0
  Mg  Mg85  1  0.86568450  0.53291483  0.50000000  1.0
  Mg  Mg86  1  0.66723033  0.53291483  0.50000000  1.0
  Mg  Mg87  1  0.06621622  0.53310811  0.50000000  1.0
  Mg  Mg88  1  0.46689189  0.53310811  0.50000000  1.0
  Mg  Mg89  1  0.26684495  0.53368989  0.50000000  1.0
  Mg  Mg90  1  0.86627253  0.73254506  0.50000000  1.0
  Mg  Mg91  1  0.06709778  0.73309706  0.50000000  1.0
  Mg  Mg92  1  0.66599928  0.73309706  0.50000000  1.0
  Mg  Mg93  1  0.46631011  0.73315505  0.50000000  1.0
  Mg  Mg94  1  0.26684495  0.73315505  0.50000000  1.0
  Mg  Mg95  1  0.26690294  0.93290222  0.50000000  1.0
  Mg  Mg96  1  0.66599928  0.93290222  0.50000000  1.0
  Mg  Mg97  1  0.86644222  0.93322111  0.50000000  1.0
  Mg  Mg98  1  0.06677889  0.93322111  0.50000000  1.0
  Mg  Mg99  1  0.46689189  0.93378378  0.50000000  1.0
  Mg  Mg100  1  0.20160318  0.00046068  0.66519214  1.0
  Mg  Mg101  1  0.79885750  0.00046068  0.66519214  1.0
  Mg  Mg102  1  0.99953932  0.20114250  0.66519214  1.0
  Mg  Mg103  1  0.20160318  0.20114250  0.66519214  1.0
  Mg  Mg104  1  0.79885750  0.79839682  0.66519214  1.0
  Mg  Mg105  1  0.99953932  0.79839682  0.66519214  1.0
  Mg  Mg106  1  0.00000000  0.00000000  0.66521219  1.0
  Mg  Mg107  1  0.20016151  0.40032302  0.66579198  1.0
  Mg  Mg108  1  0.59967698  0.79983849  0.66579198  1.0
  Mg  Mg109  1  0.20016151  0.79983849  0.66579198  1.0
  Mg  Mg110  1  0.40072803  0.00023055  0.66607333  1.0
  Mg  Mg111  1  0.59950252  0.00023055  0.66607333  1.0
  Mg  Mg112  1  0.99976945  0.40049748  0.66607333  1.0
  Mg  Mg113  1  0.40072803  0.40049748  0.66607333  1.0
  Mg  Mg114  1  0.59950252  0.59927197  0.66607333  1.0
  Mg  Mg115  1  0.99976945  0.59927197  0.66607333  1.0
  Mg  Mg116  1  0.19992663  0.59996331  0.66622281  1.0
  Mg  Mg117  1  0.40003669  0.59996331  0.66622281  1.0
  Mg  Mg118  1  0.40003669  0.80007337  0.66622281  1.0
  Mg  Mg119  1  0.60003572  0.20007144  0.66722663  1.0
  Mg  Mg120  1  0.79992856  0.39996428  0.66722663  1.0
  Mg  Mg121  1  0.60003572  0.39996428  0.66722663  1.0
  Mg  Mg122  1  0.39972041  0.19986021  0.66745761  1.0
  Mg  Mg123  1  0.80013979  0.19986021  0.66745761  1.0
  Mg  Mg124  1  0.80013979  0.60027959  0.66745761  1.0
  Mg  Mg125  1  0.07020973  0.14041947  0.82521696  1.0
  Mg  Mg126  1  0.85958053  0.92979027  0.82521696  1.0
  Mg  Mg127  1  0.07020973  0.92979027  0.82521696  1.0
  Mg  Mg128  1  0.26868845  0.33702611  0.83173610  1.0
  Mg  Mg129  1  0.06833766  0.33702611  0.83173610  1.0
  Mg  Mg130  1  0.66297389  0.73131155  0.83173610  1.0
  Mg  Mg131  1  0.06833766  0.73131155  0.83173610  1.0
  Mg  Mg132  1  0.26868845  0.93166234  0.83173610  1.0
  Mg  Mg133  1  0.66297389  0.93166234  0.83173610  1.0
  Mg  Mg134  1  0.06687007  0.53343504  0.83230049  1.0
  Mg  Mg135  1  0.46656496  0.53343504  0.83230049  1.0
  Mg  Mg136  1  0.46656496  0.93312993  0.83230049  1.0
  Mg  Mg137  1  0.26729963  0.53459926  0.83252891  1.0
  Mg  Mg138  1  0.46540074  0.73270037  0.83252891  1.0
  Mg  Mg139  1  0.26729963  0.73270037  0.83252891  1.0
  Mg  Mg140  1  0.66757089  0.13288311  0.83354489  1.0
  Mg  Mg141  1  0.46531222  0.13288311  0.83354489  1.0
  Mg  Mg142  1  0.86711689  0.33242911  0.83354489  1.0
  Mg  Mg143  1  0.46531222  0.33242911  0.83354489  1.0
  Mg  Mg144  1  0.66757089  0.53468778  0.83354489  1.0
  Mg  Mg145  1  0.86711689  0.53468778  0.83354489  1.0
  Mg  Mg146  1  0.66666667  0.33333333  0.83395675  1.0
  Mg  Mg147  1  0.86899051  0.13100949  0.83604331  1.0
  Mg  Mg148  1  0.26201898  0.13100949  0.83604331  1.0
  Mg  Mg149  1  0.86899051  0.73798102  0.83604331  1.0
