# generated using pymatgen
data_Ag16HgAs4S15
_symmetry_space_group_name_H-M   'P 1'
_cell_length_a   26.42950375
_cell_length_b   15.30930108
_cell_length_c   15.95710254
_cell_angle_alpha   90.00000000
_cell_angle_beta   90.76956281
_cell_angle_gamma   90.00000000
_symmetry_Int_Tables_number   1
_chemical_formula_structural   Ag16HgAs4S15
_chemical_formula_sum   'Ag128 Hg8 As32 S120'
_cell_volume   6455.93625567
_cell_formula_units_Z   8
loop_
 _symmetry_equiv_pos_site_id
 _symmetry_equiv_pos_as_xyz
  1  'x, y, z'
loop_
 _atom_site_type_symbol
 _atom_site_label
 _atom_site_symmetry_multiplicity
 _atom_site_fract_x
 _atom_site_fract_y
 _atom_site_fract_z
 _atom_site_occupancy
  Ag  Ag0  1  0.71781297  0.23125016  0.58601219  1.0
  Ag  Ag1  1  0.28218703  0.23125016  0.41398781  1.0
  Ag  Ag2  1  0.83144021  0.15065842  0.58861472  1.0
  Ag  Ag3  1  0.16855979  0.15065842  0.41138528  1.0
  Ag  Ag4  1  0.57700609  0.37401916  0.58753567  1.0
  Ag  Ag5  1  0.42299391  0.37401916  0.41246433  1.0
  Ag  Ag6  1  0.36900591  0.27628569  0.78549406  1.0
  Ag  Ag7  1  0.63099409  0.27628569  0.21450594  1.0
  Ag  Ag8  1  0.61594317  0.03399268  0.80400134  1.0
  Ag  Ag9  1  0.38405683  0.03399268  0.19599866  1.0
  Ag  Ag10  1  0.31786688  0.69892390  0.00166088  1.0
  Ag  Ag11  1  0.68213312  0.69892390  0.99833912  1.0
  Ag  Ag12  1  0.26439961  0.88565873  0.80166259  1.0
  Ag  Ag13  1  0.73560039  0.88565873  0.19833741  1.0
  Ag  Ag14  1  0.79631564  0.99532369  0.40162772  1.0
  Ag  Ag15  1  0.20368436  0.99532369  0.59837228  1.0
  Ag  Ag16  1  0.11610319  0.03713080  0.80732768  1.0
  Ag  Ag17  1  0.88389681  0.03713080  0.19267232  1.0
  Ag  Ag18  1  0.43457400  0.32018059  0.99894994  1.0
  Ag  Ag19  1  0.56542600  0.32018059  0.00105006  1.0
  Ag  Ag20  1  0.50000000  0.49171877  0.00000000  1.0
  Ag  Ag21  1  0.38359423  0.73375525  0.20563414  1.0
  Ag  Ag22  1  0.61640577  0.73375525  0.79436586  1.0
  Ag  Ag23  1  0.46960510  0.28707958  0.58664033  1.0
  Ag  Ag24  1  0.53039490  0.28707958  0.41335967  1.0
  Ag  Ag25  1  0.68089750  0.20381041  0.00011701  1.0
  Ag  Ag26  1  0.31910250  0.20381041  0.99988299  1.0
  Ag  Ag27  1  0.50000000  0.16105029  0.00000000  1.0
  Ag  Ag28  1  0.42575982  0.82242852  0.99776356  1.0
  Ag  Ag29  1  0.57424018  0.82242852  0.00223644  1.0
  Ag  Ag30  1  0.27927657  0.74247350  0.41541984  1.0
  Ag  Ag31  1  0.72072343  0.74247350  0.58458016  1.0
  Ag  Ag32  1  0.51674525  0.13177427  0.80731861  1.0
  Ag  Ag33  1  0.48325475  0.13177427  0.19268139  1.0
  Ag  Ag34  1  0.75025912  0.04283702  0.99879859  1.0
  Ag  Ag35  1  0.24974088  0.04283702  0.00120141  1.0
  Ag  Ag36  1  0.47210811  0.78903988  0.58637332  1.0
  Ag  Ag37  1  0.52789189  0.78903988  0.41362668  1.0
  Ag  Ag38  1  0.48468036  0.63095268  0.20118137  1.0
  Ag  Ag39  1  0.51531964  0.63095268  0.79881863  1.0
  Ag  Ag40  1  0.42365425  0.86892982  0.41453580  1.0
  Ag  Ag41  1  0.57634575  0.86892982  0.58546420  1.0
  Ag  Ag42  1  0.36438981  0.97860650  0.80330612  1.0
  Ag  Ag43  1  0.63561019  0.97860650  0.19669388  1.0
  Ag  Ag44  1  0.67773681  0.15091070  0.41474334  1.0
  Ag  Ag45  1  0.32226319  0.15091070  0.58525666  1.0
  Ag  Ag46  1  0.61774451  0.23907012  0.78978802  1.0
  Ag  Ag47  1  0.38225549  0.23907012  0.21021198  1.0
  Ag  Ag48  1  0.86446135  0.97741533  0.80685265  1.0
  Ag  Ag49  1  0.13553865  0.97741533  0.19314735  1.0
  Ag  Ag50  1  0.95263399  0.02278134  0.59483934  1.0
  Ag  Ag51  1  0.04736601  0.02278134  0.40516066  1.0
  Ag  Ag52  1  0.45113908  0.02517519  0.59534970  1.0
  Ag  Ag53  1  0.54886092  0.02517519  0.40465030  1.0
  Ag  Ag54  1  0.25091195  0.85223562  0.99852477  1.0
  Ag  Ag55  1  0.74908805  0.85223562  0.00147523  1.0
  Ag  Ag56  1  0.36789719  0.77895955  0.79171502  1.0
  Ag  Ag57  1  0.63210281  0.77895955  0.20828498  1.0
  Ag  Ag58  1  0.70173968  0.01176814  0.59405185  1.0
  Ag  Ag59  1  0.29826032  0.01176814  0.40594815  1.0
  Ag  Ag60  1  0.76602656  0.88490562  0.80306062  1.0
  Ag  Ag61  1  0.23397344  0.88490562  0.19693938  1.0
  Ag  Ag62  1  0.50000000  0.97099618  0.00000000  1.0
  Ag  Ag63  1  0.50000000  0.68476914  0.00000000  1.0
  Ag  Ag64  1  0.21781297  0.73125016  0.58601219  1.0
  Ag  Ag65  1  0.78218703  0.73125016  0.41398781  1.0
  Ag  Ag66  1  0.33144021  0.65065842  0.58861472  1.0
  Ag  Ag67  1  0.66855979  0.65065842  0.41138528  1.0
  Ag  Ag68  1  0.07700609  0.87401916  0.58753567  1.0
  Ag  Ag69  1  0.92299391  0.87401916  0.41246433  1.0
  Ag  Ag70  1  0.86900591  0.77628569  0.78549406  1.0
  Ag  Ag71  1  0.13099409  0.77628569  0.21450594  1.0
  Ag  Ag72  1  0.11594317  0.53399268  0.80400134  1.0
  Ag  Ag73  1  0.88405683  0.53399268  0.19599866  1.0
  Ag  Ag74  1  0.81786688  0.19892390  0.00166088  1.0
  Ag  Ag75  1  0.18213312  0.19892390  0.99833912  1.0
  Ag  Ag76  1  0.76439961  0.38565873  0.80166259  1.0
  Ag  Ag77  1  0.23560039  0.38565873  0.19833741  1.0
  Ag  Ag78  1  0.29631564  0.49532369  0.40162772  1.0
  Ag  Ag79  1  0.70368436  0.49532369  0.59837228  1.0
  Ag  Ag80  1  0.61610319  0.53713080  0.80732768  1.0
  Ag  Ag81  1  0.38389681  0.53713080  0.19267232  1.0
  Ag  Ag82  1  0.93457400  0.82018059  0.99894994  1.0
  Ag  Ag83  1  0.06542600  0.82018059  0.00105006  1.0
  Ag  Ag84  1  0.00000000  0.99171877  0.00000000  1.0
  Ag  Ag85  1  0.88359423  0.23375525  0.20563414  1.0
  Ag  Ag86  1  0.11640577  0.23375525  0.79436586  1.0
  Ag  Ag87  1  0.96960510  0.78707958  0.58664033  1.0
  Ag  Ag88  1  0.03039490  0.78707958  0.41335967  1.0
  Ag  Ag89  1  0.18089750  0.70381041  0.00011701  1.0
  Ag  Ag90  1  0.81910251  0.70381041  0.99988299  1.0
  Ag  Ag91  1  0.00000000  0.66105029  0.00000000  1.0
  Ag  Ag92  1  0.92575982  0.32242852  0.99776356  1.0
  Ag  Ag93  1  0.07424018  0.32242852  0.00223644  1.0
  Ag  Ag94  1  0.77927657  0.24247350  0.41541984  1.0
  Ag  Ag95  1  0.22072343  0.24247350  0.58458016  1.0
  Ag  Ag96  1  0.01674525  0.63177427  0.80731861  1.0
  Ag  Ag97  1  0.98325475  0.63177427  0.19268139  1.0
  Ag  Ag98  1  0.25025912  0.54283702  0.99879859  1.0
  Ag  Ag99  1  0.74974088  0.54283702  0.00120141  1.0
  Ag  Ag100  1  0.97210811  0.28903988  0.58637332  1.0
  Ag  Ag101  1  0.02789189  0.28903988  0.41362668  1.0
  Ag  Ag102  1  0.98468036  0.13095268  0.20118137  1.0
  Ag  Ag103  1  0.01531964  0.13095268  0.79881863  1.0
  Ag  Ag104  1  0.92365425  0.36892982  0.41453580  1.0
  Ag  Ag105  1  0.07634575  0.36892982  0.58546420  1.0
  Ag  Ag106  1  0.86438981  0.47860650  0.80330612  1.0
  Ag  Ag107  1  0.13561019  0.47860650  0.19669388  1.0
  Ag  Ag108  1  0.17773681  0.65091070  0.41474334  1.0
  Ag  Ag109  1  0.82226319  0.65091070  0.58525666  1.0
  Ag  Ag110  1  0.11774451  0.73907012  0.78978802  1.0
  Ag  Ag111  1  0.88225549  0.73907012  0.21021198  1.0
  Ag  Ag112  1  0.36446135  0.47741533  0.80685265  1.0
  Ag  Ag113  1  0.63553865  0.47741533  0.19314735  1.0
  Ag  Ag114  1  0.45263399  0.52278134  0.59483934  1.0
  Ag  Ag115  1  0.54736601  0.52278134  0.40516066  1.0
  Ag  Ag116  1  0.95113908  0.52517519  0.59534970  1.0
  Ag  Ag117  1  0.04886092  0.52517519  0.40465030  1.0
  Ag  Ag118  1  0.75091195  0.35223562  0.99852477  1.0
  Ag  Ag119  1  0.24908805  0.35223562  0.00147523  1.0
  Ag  Ag120  1  0.86789719  0.27895955  0.79171502  1.0
  Ag  Ag121  1  0.13210281  0.27895955  0.20828498  1.0
  Ag  Ag122  1  0.20173968  0.51176814  0.59405185  1.0
  Ag  Ag123  1  0.79826032  0.51176814  0.40594815  1.0
  Ag  Ag124  1  0.26602656  0.38490562  0.80306062  1.0
  Ag  Ag125  1  0.73397344  0.38490562  0.19693938  1.0
  Ag  Ag126  1  0.00000000  0.47099618  0.00000000  1.0
  Ag  Ag127  1  0.00000000  0.18476914  0.00000000  1.0
  Hg  Hg128  1  0.87580127  0.00815688  0.00063328  1.0
  Hg  Hg129  1  0.12419873  0.00815688  0.99936672  1.0
  Hg  Hg130  1  0.37302930  0.01382971  0.00129236  1.0
  Hg  Hg131  1  0.62697070  0.01382971  0.99870764  1.0
  Hg  Hg132  1  0.37580127  0.50815688  0.00063328  1.0
  Hg  Hg133  1  0.62419873  0.50815688  0.99936672  1.0
  Hg  Hg134  1  0.87302930  0.51382971  0.00129236  1.0
  Hg  Hg135  1  0.12697070  0.51382971  0.99870764  1.0
  As  As136  1  0.57931796  0.13072274  0.57562535  1.0
  As  As137  1  0.42068204  0.13072274  0.42437465  1.0
  As  As138  1  0.33269648  0.89228070  0.57410742  1.0
  As  As139  1  0.66730352  0.89228070  0.42589258  1.0
  As  As140  1  0.41509190  0.62961563  0.42494458  1.0
  As  As141  1  0.58490810  0.62961563  0.57505542  1.0
  As  As142  1  0.74923058  0.14226488  0.78823865  1.0
  As  As143  1  0.25076942  0.14226488  0.21176135  1.0
  As  As144  1  0.25072079  0.14131361  0.78830775  1.0
  As  As145  1  0.74927921  0.14131361  0.21169225  1.0
  As  As146  1  0.49941404  0.37990591  0.78885589  1.0
  As  As147  1  0.50058596  0.37990591  0.21114411  1.0
  As  As148  1  0.50036921  0.87685704  0.21119151  1.0
  As  As149  1  0.49963079  0.87685704  0.78880849  1.0
  As  As150  1  0.16911333  0.89651314  0.42509540  1.0
  As  As151  1  0.83088667  0.89651314  0.57490460  1.0
  As  As152  1  0.07931796  0.63072274  0.57562535  1.0
  As  As153  1  0.92068204  0.63072274  0.42437465  1.0
  As  As154  1  0.83269648  0.39228070  0.57410742  1.0
  As  As155  1  0.16730352  0.39228070  0.42589258  1.0
  As  As156  1  0.91509190  0.12961563  0.42494458  1.0
  As  As157  1  0.08490810  0.12961563  0.57505542  1.0
  As  As158  1  0.24923058  0.64226488  0.78823865  1.0
  As  As159  1  0.75076942  0.64226488  0.21176135  1.0
  As  As160  1  0.75072079  0.64131361  0.78830775  1.0
  As  As161  1  0.24927921  0.64131361  0.21169225  1.0
  As  As162  1  0.99941404  0.87990591  0.78885589  1.0
  As  As163  1  0.00058596  0.87990591  0.21114411  1.0
  As  As164  1  0.00036921  0.37685704  0.21119151  1.0
  As  As165  1  0.99963079  0.37685704  0.78880849  1.0
  As  As166  1  0.66911333  0.39651314  0.42509540  1.0
  As  As167  1  0.33088667  0.39651314  0.57490460  1.0
  S  S168  1  0.37270938  0.74258210  0.36327877  1.0
  S  S169  1  0.62729062  0.74258210  0.63672123  1.0
  S  S170  1  0.50000000  0.41660569  0.50000000  1.0
  S  S171  1  0.37875640  0.78234816  0.63481507  1.0
  S  S172  1  0.62124360  0.78234816  0.36518493  1.0
  S  S173  1  0.42288370  0.87565852  0.14670148  1.0
  S  S174  1  0.57711630  0.87565852  0.85329852  1.0
  S  S175  1  0.86652028  0.00630148  0.65244965  1.0
  S  S176  1  0.13347972  0.00630148  0.34755035  1.0
  S  S177  1  0.32771879  0.14465576  0.85437310  1.0
  S  S178  1  0.67228121  0.14465576  0.14562690  1.0
  S  S179  1  0.71473900  0.02470733  0.85432282  1.0
  S  S180  1  0.28526100  0.02470733  0.14567718  1.0
  S  S181  1  0.57626345  0.37547412  0.85546561  1.0
  S  S182  1  0.42373655  0.37547412  0.14453439  1.0
  S  S183  1  0.62548566  0.24265219  0.63308596  1.0
  S  S184  1  0.37451434  0.24265219  0.36691404  1.0
  S  S185  1  0.70981149  0.75156017  0.85567749  1.0
  S  S186  1  0.29018851  0.75156017  0.14432251  1.0
  S  S187  1  0.50640056  0.14835871  0.64942436  1.0
  S  S188  1  0.49359944  0.14835871  0.35057564  1.0
  S  S189  1  0.46024698  0.76531996  0.85681442  1.0
  S  S190  1  0.53975302  0.76531996  0.14318558  1.0
  S  S191  1  0.58601145  0.63836162  0.93465036  1.0
  S  S192  1  0.41398855  0.63836162  0.06534964  1.0
  S  S193  1  0.58603122  0.14120130  0.93354438  1.0
  S  S194  1  0.41396878  0.14120130  0.06645562  1.0
  S  S195  1  0.21626102  0.02414255  0.85582643  1.0
  S  S196  1  0.78373898  0.02414255  0.14417357  1.0
  S  S197  1  0.70874695  0.25260627  0.85619083  1.0
  S  S198  1  0.29125305  0.25260627  0.14380917  1.0
  S  S199  1  0.75572312  0.10678690  0.49937375  1.0
  S  S200  1  0.24427688  0.10678690  0.50062625  1.0
  S  S201  1  0.25847668  0.87072598  0.64374100  1.0
  S  S202  1  0.74152332  0.87072598  0.35625900  1.0
  S  S203  1  0.36352832  0.00888585  0.64853445  1.0
  S  S204  1  0.63647168  0.00888585  0.35146555  1.0
  S  S205  1  0.61400416  0.01572415  0.64706083  1.0
  S  S206  1  0.38599584  0.01572415  0.35293917  1.0
  S  S207  1  0.49099344  0.64687747  0.35912127  1.0
  S  S208  1  0.50900656  0.64687747  0.64087873  1.0
  S  S209  1  0.50000000  0.92138968  0.50000000  1.0
  S  S210  1  0.37441512  0.28007035  0.62885284  1.0
  S  S211  1  0.62558488  0.28007035  0.37114716  1.0
  S  S212  1  0.24373354  0.88231322  0.35589030  1.0
  S  S213  1  0.75626646  0.88231322  0.64410970  1.0
  S  S214  1  0.46437814  0.99302640  0.85585563  1.0
  S  S215  1  0.53562186  0.99302640  0.14414437  1.0
  S  S216  1  0.82616022  0.14404050  0.85515767  1.0
  S  S217  1  0.17383978  0.14404050  0.14484233  1.0
  S  S218  1  0.83509819  0.88084682  0.93455177  1.0
  S  S219  1  0.16490181  0.88084682  0.06544823  1.0
  S  S220  1  0.45885900  0.26926406  0.85589088  1.0
  S  S221  1  0.54114100  0.26926406  0.14410912  1.0
  S  S222  1  0.88360284  0.01521311  0.34848355  1.0
  S  S223  1  0.11639716  0.01521311  0.65151645  1.0
  S  S224  1  0.33672819  0.88366243  0.93377767  1.0
  S  S225  1  0.66327181  0.88366243  0.06622233  1.0
  S  S226  1  0.96448463  0.99748448  0.85464416  1.0
  S  S227  1  0.03551537  0.99748448  0.14535584  1.0
  S  S228  1  0.87270938  0.24258210  0.36327877  1.0
  S  S229  1  0.12729062  0.24258210  0.63672123  1.0
  S  S230  1  0.00000000  0.91660569  0.50000000  1.0
  S  S231  1  0.87875640  0.28234816  0.63481507  1.0
  S  S232  1  0.12124360  0.28234816  0.36518493  1.0
  S  S233  1  0.92288370  0.37565852  0.14670148  1.0
  S  S234  1  0.07711630  0.37565852  0.85329852  1.0
  S  S235  1  0.36652028  0.50630148  0.65244965  1.0
  S  S236  1  0.63347972  0.50630148  0.34755035  1.0
  S  S237  1  0.82771879  0.64465576  0.85437310  1.0
  S  S238  1  0.17228121  0.64465576  0.14562690  1.0
  S  S239  1  0.21473900  0.52470733  0.85432282  1.0
  S  S240  1  0.78526100  0.52470733  0.14567718  1.0
  S  S241  1  0.07626345  0.87547412  0.85546561  1.0
  S  S242  1  0.92373655  0.87547412  0.14453439  1.0
  S  S243  1  0.12548566  0.74265219  0.63308596  1.0
  S  S244  1  0.87451434  0.74265219  0.36691404  1.0
  S  S245  1  0.20981149  0.25156017  0.85567749  1.0
  S  S246  1  0.79018851  0.25156017  0.14432251  1.0
  S  S247  1  0.00640056  0.64835871  0.64942436  1.0
  S  S248  1  0.99359944  0.64835871  0.35057564  1.0
  S  S249  1  0.96024698  0.26531996  0.85681442  1.0
  S  S250  1  0.03975302  0.26531996  0.14318558  1.0
  S  S251  1  0.08601145  0.13836162  0.93465036  1.0
  S  S252  1  0.91398855  0.13836162  0.06534964  1.0
  S  S253  1  0.08603122  0.64120130  0.93354438  1.0
  S  S254  1  0.91396878  0.64120130  0.06645562  1.0
  S  S255  1  0.71626102  0.52414255  0.85582643  1.0
  S  S256  1  0.28373898  0.52414255  0.14417357  1.0
  S  S257  1  0.20874695  0.75260627  0.85619083  1.0
  S  S258  1  0.79125305  0.75260627  0.14380917  1.0
  S  S259  1  0.25572312  0.60678690  0.49937375  1.0
  S  S260  1  0.74427688  0.60678690  0.50062625  1.0
  S  S261  1  0.75847668  0.37072598  0.64374100  1.0
  S  S262  1  0.24152332  0.37072598  0.35625900  1.0
  S  S263  1  0.86352832  0.50888585  0.64853445  1.0
  S  S264  1  0.13647168  0.50888585  0.35146555  1.0
  S  S265  1  0.11400416  0.51572415  0.64706083  1.0
  S  S266  1  0.88599584  0.51572415  0.35293917  1.0
  S  S267  1  0.99099344  0.14687747  0.35912127  1.0
  S  S268  1  0.00900656  0.14687747  0.64087873  1.0
  S  S269  1  0.00000000  0.42138968  0.50000000  1.0
  S  S270  1  0.87441512  0.78007035  0.62885284  1.0
  S  S271  1  0.12558488  0.78007035  0.37114716  1.0
  S  S272  1  0.74373354  0.38231322  0.35589030  1.0
  S  S273  1  0.25626646  0.38231322  0.64410970  1.0
  S  S274  1  0.96437814  0.49302640  0.85585563  1.0
  S  S275  1  0.03562186  0.49302640  0.14414437  1.0
  S  S276  1  0.32616022  0.64404050  0.85515767  1.0
  S  S277  1  0.67383978  0.64404050  0.14484233  1.0
  S  S278  1  0.33509819  0.38084682  0.93455177  1.0
  S  S279  1  0.66490181  0.38084682  0.06544823  1.0
  S  S280  1  0.95885900  0.76926406  0.85589088  1.0
  S  S281  1  0.04114100  0.76926406  0.14410912  1.0
  S  S282  1  0.38360284  0.51521311  0.34848355  1.0
  S  S283  1  0.61639716  0.51521311  0.65151645  1.0
  S  S284  1  0.83672819  0.38366243  0.93377767  1.0
  S  S285  1  0.16327181  0.38366243  0.06622233  1.0
  S  S286  1  0.46448463  0.49748448  0.85464416  1.0
  S  S287  1  0.53551537  0.49748448  0.14535584  1.0
