# generated using pymatgen
data_Ag15S5I4Br
_symmetry_space_group_name_H-M   'P 1'
_cell_length_a   6.99391357
_cell_length_b   8.55899514
_cell_length_c   10.98724307
_cell_angle_alpha   105.12331588
_cell_angle_beta   107.97388451
_cell_angle_gamma   90.43424195
_symmetry_Int_Tables_number   1
_chemical_formula_structural   Ag15S5I4Br
_chemical_formula_sum   'Ag15 S5 I4 Br1'
_cell_volume   601.15584614
_cell_formula_units_Z   1
loop_
 _symmetry_equiv_pos_site_id
 _symmetry_equiv_pos_as_xyz
  1  'x, y, z'
loop_
 _atom_site_type_symbol
 _atom_site_label
 _atom_site_symmetry_multiplicity
 _atom_site_fract_x
 _atom_site_fract_y
 _atom_site_fract_z
 _atom_site_occupancy
  Ag  Ag0  1  0.27447000  0.75610200  0.13275600  1.0
  Ag  Ag1  1  0.67852500  0.35413500  0.93581500  1.0
  Ag  Ag2  1  0.07845200  0.95494400  0.73946100  1.0
  Ag  Ag3  1  0.47634900  0.55567200  0.53449800  1.0
  Ag  Ag4  1  0.87676300  0.15467500  0.33319600  1.0
  Ag  Ag5  1  0.44617700  0.94457200  0.98776900  1.0
  Ag  Ag6  1  0.84461500  0.54458300  0.78821300  1.0
  Ag  Ag7  1  0.24284200  0.14184100  0.58690600  1.0
  Ag  Ag8  1  0.64302500  0.74296400  0.38678800  1.0
  Ag  Ag9  1  0.04526300  0.33918400  0.18477000  1.0
  Ag  Ag10  1  0.39517600  0.11404600  0.24968100  1.0
  Ag  Ag11  1  0.80168300  0.71895500  0.05098800  1.0
  Ag  Ag12  1  0.19791300  0.31442300  0.85144200  1.0
  Ag  Ag13  1  0.59966900  0.91502300  0.65305300  1.0
  Ag  Ag14  1  0.99789300  0.51584800  0.45026100  1.0
  S  S15  1  0.84458500  0.69505200  0.61612200  1.0
  S  S16  1  0.24210900  0.29212300  0.41289500  1.0
  S  S17  1  0.64169600  0.89365500  0.21224300  1.0
  S  S18  1  0.04228900  0.49299000  0.01429700  1.0
  S  S19  1  0.44295500  0.09293800  0.81557900  1.0
  I  I20  1  0.39550400  0.59929100  0.79754300  1.0
  I  I21  1  0.79507100  0.19974400  0.59911000  1.0
  I  I22  1  0.19464500  0.80054200  0.39756100  1.0
  I  I23  1  0.59586700  0.40103800  0.19949600  1.0
  Br  Br24  1  0.00846200  0.99866000  0.00355900  1.0
