# generated using pymatgen
data_Ag3Sn2(GeP2)3
_symmetry_space_group_name_H-M   'P 1'
_cell_length_a   10.62643800
_cell_length_b   10.62643800
_cell_length_c   10.62643800
_cell_angle_alpha   90.00000000
_cell_angle_beta   90.00000000
_cell_angle_gamma   90.00000000
_symmetry_Int_Tables_number   1
_chemical_formula_structural   Ag3Sn2(GeP2)3
_chemical_formula_sum   'Ag12 Sn8 Ge12 P24'
_cell_volume   1199.94996670
_cell_formula_units_Z   4
loop_
 _symmetry_equiv_pos_site_id
 _symmetry_equiv_pos_as_xyz
  1  'x, y, z'
loop_
 _atom_site_type_symbol
 _atom_site_label
 _atom_site_symmetry_multiplicity
 _atom_site_fract_x
 _atom_site_fract_y
 _atom_site_fract_z
 _atom_site_occupancy
  Ag  Ag0  1  0.00000000  0.19612700  0.00000000  1.0
  Ag  Ag1  1  0.00000000  0.80387300  0.00000000  1.0
  Ag  Ag2  1  0.00000000  0.00000000  0.19612700  1.0
  Ag  Ag3  1  0.00000000  0.00000000  0.80387300  1.0
  Ag  Ag4  1  0.80387300  0.00000000  0.00000000  1.0
  Ag  Ag5  1  0.19612700  0.00000000  0.00000000  1.0
  Ag  Ag6  1  0.50000000  0.69612700  0.50000000  1.0
  Ag  Ag7  1  0.50000000  0.30387300  0.50000000  1.0
  Ag  Ag8  1  0.50000000  0.50000000  0.69612700  1.0
  Ag  Ag9  1  0.50000000  0.50000000  0.30387300  1.0
  Ag  Ag10  1  0.30387300  0.50000000  0.50000000  1.0
  Ag  Ag11  1  0.69612700  0.50000000  0.50000000  1.0
  Sn  Sn12  1  0.20577450  0.20577450  0.20577450  1.0
  Sn  Sn13  1  0.29422550  0.29422550  0.70577450  1.0
  Sn  Sn14  1  0.79422550  0.20577450  0.79422550  1.0
  Sn  Sn15  1  0.20577450  0.79422550  0.79422550  1.0
  Sn  Sn16  1  0.70577450  0.70577450  0.70577450  1.0
  Sn  Sn17  1  0.79422550  0.79422550  0.20577450  1.0
  Sn  Sn18  1  0.29422550  0.70577450  0.29422550  1.0
  Sn  Sn19  1  0.70577450  0.29422550  0.29422550  1.0
  Ge  Ge20  1  0.00000000  0.25000000  0.50000000  1.0
  Ge  Ge21  1  0.50000000  0.25000000  0.00000000  1.0
  Ge  Ge22  1  0.25000000  0.50000000  0.00000000  1.0
  Ge  Ge23  1  0.50000000  0.00000000  0.75000000  1.0
  Ge  Ge24  1  0.25000000  0.00000000  0.50000000  1.0
  Ge  Ge25  1  0.00000000  0.50000000  0.75000000  1.0
  Ge  Ge26  1  0.50000000  0.75000000  0.00000000  1.0
  Ge  Ge27  1  0.00000000  0.75000000  0.50000000  1.0
  Ge  Ge28  1  0.75000000  0.00000000  0.50000000  1.0
  Ge  Ge29  1  0.00000000  0.50000000  0.25000000  1.0
  Ge  Ge30  1  0.75000000  0.50000000  0.00000000  1.0
  Ge  Ge31  1  0.50000000  0.00000000  0.25000000  1.0
  P  P32  1  0.87463550  0.63481850  0.87463550  1.0
  P  P33  1  0.87463550  0.12536450  0.36518150  1.0
  P  P34  1  0.36518150  0.12536450  0.87463550  1.0
  P  P35  1  0.63481850  0.87463550  0.87463550  1.0
  P  P36  1  0.37463550  0.86518150  0.62536450  1.0
  P  P37  1  0.12536450  0.36518150  0.87463550  1.0
  P  P38  1  0.12536450  0.63481850  0.12536450  1.0
  P  P39  1  0.63481850  0.12536450  0.12536450  1.0
  P  P40  1  0.37463550  0.37463550  0.13481850  1.0
  P  P41  1  0.86518150  0.37463550  0.62536450  1.0
  P  P42  1  0.12536450  0.87463550  0.36518150  1.0
  P  P43  1  0.12536450  0.12536450  0.63481850  1.0
  P  P44  1  0.37463550  0.13481850  0.37463550  1.0
  P  P45  1  0.37463550  0.62536450  0.86518150  1.0
  P  P46  1  0.86518150  0.62536450  0.37463550  1.0
  P  P47  1  0.13481850  0.37463550  0.37463550  1.0
  P  P48  1  0.87463550  0.36518150  0.12536450  1.0
  P  P49  1  0.62536450  0.86518150  0.37463550  1.0
  P  P50  1  0.62536450  0.13481850  0.62536450  1.0
  P  P51  1  0.13481850  0.62536450  0.62536450  1.0
  P  P52  1  0.87463550  0.87463550  0.63481850  1.0
  P  P53  1  0.36518150  0.87463550  0.12536450  1.0
  P  P54  1  0.62536450  0.37463550  0.86518150  1.0
  P  P55  1  0.62536450  0.62536450  0.13481850  1.0
