# generated using pymatgen
data_Ag3Mo3AsO13
_symmetry_space_group_name_H-M   'P 1'
_cell_length_a   8.18517688
_cell_length_b   8.36960279
_cell_length_c   10.02727583
_cell_angle_alpha   64.11632123
_cell_angle_beta   67.69368353
_cell_angle_gamma   74.34892123
_symmetry_Int_Tables_number   1
_chemical_formula_structural   Ag3Mo3AsO13
_chemical_formula_sum   'Ag6 Mo6 As2 O26'
_cell_volume   567.28750764
_cell_formula_units_Z   2
loop_
 _symmetry_equiv_pos_site_id
 _symmetry_equiv_pos_as_xyz
  1  'x, y, z'
loop_
 _atom_site_type_symbol
 _atom_site_label
 _atom_site_symmetry_multiplicity
 _atom_site_fract_x
 _atom_site_fract_y
 _atom_site_fract_z
 _atom_site_occupancy
  Ag  Ag0  1  0.39146900  0.76592300  0.58005900  1.0
  Ag  Ag1  1  0.60853100  0.23407700  0.41994100  1.0
  Ag  Ag2  1  0.08965800  0.20924800  0.44170100  1.0
  Ag  Ag3  1  0.91034200  0.79075200  0.55829900  1.0
  Ag  Ag4  1  0.25641200  0.50551300  0.96474800  1.0
  Ag  Ag5  1  0.74358800  0.49448700  0.03525200  1.0
  Mo  Mo6  1  0.30198200  0.66702100  0.24404100  1.0
  Mo  Mo7  1  0.69801800  0.33297900  0.75595900  1.0
  Mo  Mo8  1  0.11666100  0.28895100  0.76766700  1.0
  Mo  Mo9  1  0.88333900  0.71104900  0.23233300  1.0
  Mo  Mo10  1  0.48695100  0.93145000  0.85829100  1.0
  Mo  Mo11  1  0.51304900  0.06855000  0.14170900  1.0
  As  As12  1  0.94684000  0.89196900  0.83134500  1.0
  As  As13  1  0.05316000  0.10803100  0.16865500  1.0
  O  O14  1  0.21798600  0.45464000  0.75711400  1.0
  O  O15  1  0.78201400  0.54536000  0.24288600  1.0
  O  O16  1  0.46146100  0.47468900  0.26323100  1.0
  O  O17  1  0.53853900  0.52531100  0.73676900  1.0
  O  O18  1  0.40936100  0.71456900  0.96923000  1.0
  O  O19  1  0.59063900  0.28543100  0.03077000  1.0
  O  O20  1  0.08085800  0.88523200  0.65418600  1.0
  O  O21  1  0.91914200  0.11476800  0.34581400  1.0
  O  O22  1  0.91464700  0.10998400  0.82326600  1.0
  O  O23  1  0.08535300  0.89001600  0.17673400  1.0
  O  O24  1  0.74800700  0.81521200  0.86944900  1.0
  O  O25  1  0.25199300  0.18478800  0.13055100  1.0
  O  O26  1  0.03010700  0.74968100  0.98199700  1.0
  O  O27  1  0.96989300  0.25031900  0.01800300  1.0
  O  O28  1  0.44156500  0.86862100  0.12307500  1.0
  O  O29  1  0.55843500  0.13137900  0.87692500  1.0
  O  O30  1  0.26240700  0.07048100  0.86315800  1.0
  O  O31  1  0.73759300  0.92951900  0.13684200  1.0
  O  O32  1  0.55803000  0.96487900  0.65924200  1.0
  O  O33  1  0.44197000  0.03512100  0.34075800  1.0
  O  O34  1  0.76497500  0.31306300  0.57557800  1.0
  O  O35  1  0.23502500  0.68693700  0.42442200  1.0
  O  O36  1  0.11294000  0.56027300  0.25244600  1.0
  O  O37  1  0.88706000  0.43972700  0.74755400  1.0
  O  O38  1  0.21013900  0.28070100  0.57978800  1.0
  O  O39  1  0.78986100  0.71929900  0.42021200  1.0
