# generated using pymatgen
data_Ag(OsO3)2
_symmetry_space_group_name_H-M   'P 1'
_cell_length_a   7.24009200
_cell_length_b   7.26301000
_cell_length_c   10.18022200
_cell_angle_alpha   90.00000000
_cell_angle_beta   90.00000000
_cell_angle_gamma   90.00000000
_symmetry_Int_Tables_number   1
_chemical_formula_structural   Ag(OsO3)2
_chemical_formula_sum   'Ag4 Os8 O24'
_cell_volume   535.32555472
_cell_formula_units_Z   4
loop_
 _symmetry_equiv_pos_site_id
 _symmetry_equiv_pos_as_xyz
  1  'x, y, z'
loop_
 _atom_site_type_symbol
 _atom_site_label
 _atom_site_symmetry_multiplicity
 _atom_site_fract_x
 _atom_site_fract_y
 _atom_site_fract_z
 _atom_site_occupancy
  Ag  Ag0  1  0.29038500  0.25000000  0.77862800  1.0
  Ag  Ag1  1  0.79038500  0.25000000  0.72137200  1.0
  Ag  Ag2  1  0.79038500  0.75000000  0.27862800  1.0
  Ag  Ag3  1  0.29038500  0.75000000  0.22137200  1.0
  Os  Os4  1  0.23891850  0.25000000  0.25232250  1.0
  Os  Os5  1  0.73891850  0.25000000  0.24767750  1.0
  Os  Os6  1  0.99573000  0.50000000  0.00000000  1.0
  Os  Os7  1  0.99573000  0.00000000  0.00000000  1.0
  Os  Os8  1  0.73891850  0.75000000  0.75232250  1.0
  Os  Os9  1  0.23891850  0.75000000  0.74767750  1.0
  Os  Os10  1  0.49573000  0.00000000  0.50000000  1.0
  Os  Os11  1  0.49573000  0.50000000  0.50000000  1.0
  O  O12  1  0.50183050  0.75000000  0.42578950  1.0
  O  O13  1  0.99317600  0.25000000  0.30738400  1.0
  O  O14  1  0.81307050  0.06666150  0.12404950  1.0
  O  O15  1  0.69390950  0.94871550  0.62540050  1.0
  O  O16  1  0.19390950  0.05128450  0.12540050  1.0
  O  O17  1  0.81307050  0.43333850  0.12404950  1.0
  O  O18  1  0.00183050  0.75000000  0.07421050  1.0
  O  O19  1  0.49317600  0.25000000  0.19261600  1.0
  O  O20  1  0.69390950  0.44871550  0.37459950  1.0
  O  O21  1  0.81307050  0.56666150  0.87595050  1.0
  O  O22  1  0.31307050  0.43333850  0.37595050  1.0
  O  O23  1  0.69390950  0.05128450  0.37459950  1.0
  O  O24  1  0.00183050  0.25000000  0.92578950  1.0
  O  O25  1  0.49317600  0.75000000  0.80738400  1.0
  O  O26  1  0.31307050  0.56666150  0.62404950  1.0
  O  O27  1  0.19390950  0.44871550  0.12540050  1.0
  O  O28  1  0.69390950  0.55128450  0.62540050  1.0
  O  O29  1  0.31307050  0.93333850  0.62404950  1.0
  O  O30  1  0.50183050  0.25000000  0.57421050  1.0
  O  O31  1  0.99317600  0.75000000  0.69261600  1.0
  O  O32  1  0.19390950  0.94871550  0.87459950  1.0
  O  O33  1  0.31307050  0.06666150  0.37595050  1.0
  O  O34  1  0.81307050  0.93333850  0.87595050  1.0
  O  O35  1  0.19390950  0.55128450  0.87459950  1.0
