# generated using pymatgen
data_Ag3Te32Au13
_symmetry_space_group_name_H-M   'P 1'
_cell_length_a   33.92056800
_cell_length_b   9.04361000
_cell_length_c   9.08914055
_cell_angle_alpha   90.00000000
_cell_angle_beta   90.06878036
_cell_angle_gamma   90.00000000
_symmetry_Int_Tables_number   1
_chemical_formula_structural   Ag3Te32Au13
_chemical_formula_sum   'Ag6 Te64 Au26'
_cell_volume   2788.22262899
_cell_formula_units_Z   2
loop_
 _symmetry_equiv_pos_site_id
 _symmetry_equiv_pos_as_xyz
  1  'x, y, z'
loop_
 _atom_site_type_symbol
 _atom_site_label
 _atom_site_symmetry_multiplicity
 _atom_site_fract_x
 _atom_site_fract_y
 _atom_site_fract_z
 _atom_site_occupancy
  Ag  Ag0  1  0.37485050  0.69846650  0.68329000  1.0
  Ag  Ag1  1  0.12514950  0.19846650  0.31671000  1.0
  Ag  Ag2  1  0.00000000  0.70012100  0.00000000  1.0
  Ag  Ag3  1  0.87485050  0.19846650  0.68329000  1.0
  Ag  Ag4  1  0.62514950  0.69846650  0.31671000  1.0
  Ag  Ag5  1  0.50000000  0.20012100  0.00000000  1.0
  Te  Te6  1  0.43646400  0.96905700  0.63082500  1.0
  Te  Te7  1  0.43690000  0.46510000  0.63244000  1.0
  Te  Te8  1  0.06353600  0.46905700  0.36917500  1.0
  Te  Te9  1  0.06310000  0.96510000  0.36756000  1.0
  Te  Te10  1  0.31367950  0.96918950  0.63076000  1.0
  Te  Te11  1  0.31331550  0.46481350  0.63243000  1.0
  Te  Te12  1  0.18632050  0.46918950  0.36924000  1.0
  Te  Te13  1  0.18668450  0.96481350  0.36757000  1.0
  Te  Te14  1  0.37521100  0.22358100  0.98112800  1.0
  Te  Te15  1  0.37459250  0.72478150  0.98898600  1.0
  Te  Te16  1  0.12478900  0.72358100  0.01887200  1.0
  Te  Te17  1  0.12540750  0.22478150  0.01101400  1.0
  Te  Te18  1  0.37479650  0.76729950  0.38567200  1.0
  Te  Te19  1  0.37502450  0.26351550  0.38682000  1.0
  Te  Te20  1  0.12520350  0.26729950  0.61432800  1.0
  Te  Te21  1  0.12497550  0.76351550  0.61318000  1.0
  Te  Te22  1  0.49742450  0.15191750  0.30170200  1.0
  Te  Te23  1  0.49749750  0.65448950  0.29797700  1.0
  Te  Te24  1  0.00257550  0.65191750  0.69829800  1.0
  Te  Te25  1  0.00250250  0.15448950  0.70202300  1.0
  Te  Te26  1  0.25229450  0.15464950  0.29763200  1.0
  Te  Te27  1  0.25268050  0.65428050  0.29768600  1.0
  Te  Te28  1  0.24770550  0.65464950  0.70236800  1.0
  Te  Te29  1  0.24731950  0.15428050  0.70231400  1.0
  Te  Te30  1  0.43942800  0.43287200  0.03876100  1.0
  Te  Te31  1  0.43963900  0.92797500  0.03874200  1.0
  Te  Te32  1  0.06057200  0.93287200  0.96123900  1.0
  Te  Te33  1  0.06036100  0.42797500  0.96125800  1.0
  Te  Te34  1  0.31053150  0.43170550  0.03768400  1.0
  Te  Te35  1  0.31011600  0.93155200  0.03773000  1.0
  Te  Te36  1  0.18946850  0.93170550  0.96231600  1.0
  Te  Te37  1  0.18988400  0.43155200  0.96227000  1.0
  Te  Te38  1  0.93646400  0.46905700  0.63082500  1.0
  Te  Te39  1  0.93690000  0.96510000  0.63244000  1.0
  Te  Te40  1  0.56353600  0.96905700  0.36917500  1.0
  Te  Te41  1  0.56310000  0.46510000  0.36756000  1.0
  Te  Te42  1  0.81367950  0.46918950  0.63076000  1.0
  Te  Te43  1  0.81331550  0.96481350  0.63243000  1.0
  Te  Te44  1  0.68632050  0.96918950  0.36924000  1.0
  Te  Te45  1  0.68668450  0.46481350  0.36757000  1.0
  Te  Te46  1  0.87521100  0.72358100  0.98112800  1.0
  Te  Te47  1  0.87459250  0.22478150  0.98898600  1.0
  Te  Te48  1  0.62478900  0.22358100  0.01887200  1.0
  Te  Te49  1  0.62540750  0.72478150  0.01101400  1.0
  Te  Te50  1  0.87479650  0.26729950  0.38567200  1.0
  Te  Te51  1  0.87502450  0.76351550  0.38682000  1.0
  Te  Te52  1  0.62520350  0.76729950  0.61432800  1.0
  Te  Te53  1  0.62497550  0.26351550  0.61318000  1.0
  Te  Te54  1  0.99742450  0.65191750  0.30170200  1.0
  Te  Te55  1  0.99749750  0.15448950  0.29797700  1.0
  Te  Te56  1  0.50257550  0.15191750  0.69829800  1.0
  Te  Te57  1  0.50250250  0.65448950  0.70202300  1.0
  Te  Te58  1  0.75229450  0.65464950  0.29763200  1.0
  Te  Te59  1  0.75268050  0.15428050  0.29768600  1.0
  Te  Te60  1  0.74770550  0.15464950  0.70236800  1.0
  Te  Te61  1  0.74731950  0.65428050  0.70231400  1.0
  Te  Te62  1  0.93942800  0.93287200  0.03876100  1.0
  Te  Te63  1  0.93963900  0.42797500  0.03874200  1.0
  Te  Te64  1  0.56057200  0.43287200  0.96123900  1.0
  Te  Te65  1  0.56036100  0.92797500  0.96125800  1.0
  Te  Te66  1  0.81053150  0.93170550  0.03768400  1.0
  Te  Te67  1  0.81011600  0.43155200  0.03773000  1.0
  Te  Te68  1  0.68946850  0.43170550  0.96231600  1.0
  Te  Te69  1  0.68988400  0.93155200  0.96227000  1.0
  Au  Au70  1  0.43701450  0.95339950  0.33408200  1.0
  Au  Au71  1  0.43710100  0.45320200  0.33482600  1.0
  Au  Au72  1  0.06298550  0.45339950  0.66591800  1.0
  Au  Au73  1  0.06289900  0.95320200  0.66517400  1.0
  Au  Au74  1  0.31258850  0.95455350  0.33342900  1.0
  Au  Au75  1  0.31304900  0.45336900  0.33421500  1.0
  Au  Au76  1  0.18741150  0.45455350  0.66657100  1.0
  Au  Au77  1  0.18695100  0.95336900  0.66578500  1.0
  Au  Au78  1  0.37503000  0.20815800  0.68213100  1.0
  Au  Au79  1  0.12497000  0.70815800  0.31786900  1.0
  Au  Au80  1  0.00000000  0.19173000  0.00000000  1.0
  Au  Au81  1  0.25030900  0.69304600  0.99985300  1.0
  Au  Au82  1  0.24969100  0.19304600  0.00014700  1.0
  Au  Au83  1  0.93701450  0.45339950  0.33408200  1.0
  Au  Au84  1  0.93710100  0.95320200  0.33482600  1.0
  Au  Au85  1  0.56298550  0.95339950  0.66591800  1.0
  Au  Au86  1  0.56289900  0.45320200  0.66517400  1.0
  Au  Au87  1  0.81258850  0.45455350  0.33342900  1.0
  Au  Au88  1  0.81304900  0.95336900  0.33421500  1.0
  Au  Au89  1  0.68741150  0.95455350  0.66657100  1.0
  Au  Au90  1  0.68695100  0.45336900  0.66578500  1.0
  Au  Au91  1  0.87503000  0.70815800  0.68213100  1.0
  Au  Au92  1  0.62497000  0.20815800  0.31786900  1.0
  Au  Au93  1  0.50000000  0.69173000  0.00000000  1.0
  Au  Au94  1  0.75030900  0.19304600  0.99985300  1.0
  Au  Au95  1  0.74969100  0.69304600  0.00014700  1.0
