# generated using pymatgen
data_Ag13As3(IO3)4
_symmetry_space_group_name_H-M   'P 1'
_cell_length_a   9.44517300
_cell_length_b   7.14040500
_cell_length_c   18.11065211
_cell_angle_alpha   90.00000000
_cell_angle_beta   90.45102105
_cell_angle_gamma   90.00000000
_symmetry_Int_Tables_number   1
_chemical_formula_structural   Ag13As3(IO3)4
_chemical_formula_sum   'Ag26 As6 I8 O24'
_cell_volume   1221.38728599
_cell_formula_units_Z   2
loop_
 _symmetry_equiv_pos_site_id
 _symmetry_equiv_pos_as_xyz
  1  'x, y, z'
loop_
 _atom_site_type_symbol
 _atom_site_label
 _atom_site_symmetry_multiplicity
 _atom_site_fract_x
 _atom_site_fract_y
 _atom_site_fract_z
 _atom_site_occupancy
  Ag  Ag0  1  0.29456400  0.75000000  0.33394200  1.0
  Ag  Ag1  1  0.70543600  0.25000000  0.66605800  1.0
  Ag  Ag2  1  0.95197100  0.25000000  0.38051600  1.0
  Ag  Ag3  1  0.04802900  0.75000000  0.61948400  1.0
  Ag  Ag4  1  0.02412500  0.03890300  0.24430300  1.0
  Ag  Ag5  1  0.97587500  0.53890300  0.75569700  1.0
  Ag  Ag6  1  0.97587500  0.96109700  0.75569700  1.0
  Ag  Ag7  1  0.02412500  0.46109700  0.24430300  1.0
  Ag  Ag8  1  0.60641300  0.95937000  0.33367700  1.0
  Ag  Ag9  1  0.39358700  0.45937000  0.66632300  1.0
  Ag  Ag10  1  0.39358700  0.04063000  0.66632300  1.0
  Ag  Ag11  1  0.60641300  0.54063000  0.33367700  1.0
  Ag  Ag12  1  0.23134600  0.98552700  0.47648000  1.0
  Ag  Ag13  1  0.76865400  0.48552700  0.52352000  1.0
  Ag  Ag14  1  0.76865400  0.01447300  0.52352000  1.0
  Ag  Ag15  1  0.23134600  0.51447300  0.47648000  1.0
  Ag  Ag16  1  0.37139800  0.98758000  0.15360100  1.0
  Ag  Ag17  1  0.62860200  0.48758000  0.84639900  1.0
  Ag  Ag18  1  0.62860200  0.01242000  0.84639900  1.0
  Ag  Ag19  1  0.37139800  0.51242000  0.15360100  1.0
  Ag  Ag20  1  0.08734200  0.25000000  0.08998400  1.0
  Ag  Ag21  1  0.91265800  0.75000000  0.91001600  1.0
  Ag  Ag22  1  0.72667400  0.00378700  0.06854000  1.0
  Ag  Ag23  1  0.27332600  0.50378700  0.93146000  1.0
  Ag  Ag24  1  0.27332600  0.99621300  0.93146000  1.0
  Ag  Ag25  1  0.72667400  0.49621300  0.06854000  1.0
  As  As26  1  0.31312900  0.25000000  0.32171100  1.0
  As  As27  1  0.68687100  0.75000000  0.67828900  1.0
  As  As28  1  0.06942500  0.75000000  0.07279600  1.0
  As  As29  1  0.93057500  0.25000000  0.92720400  1.0
  As  As30  1  0.93795800  0.75000000  0.39439600  1.0
  As  As31  1  0.06204200  0.25000000  0.60560400  1.0
  I  I32  1  0.78637900  0.25000000  0.21875100  1.0
  I  I33  1  0.21362100  0.75000000  0.78124900  1.0
  I  I34  1  0.47284300  0.75000000  0.45743600  1.0
  I  I35  1  0.52715700  0.25000000  0.54256400  1.0
  I  I36  1  0.59907500  0.75000000  0.19357500  1.0
  I  I37  1  0.40092500  0.25000000  0.80642500  1.0
  I  I38  1  0.46184400  0.25000000  0.04682800  1.0
  I  I39  1  0.53815600  0.75000000  0.95317200  1.0
  O  O40  1  0.27068500  0.04995800  0.27107100  1.0
  O  O41  1  0.72931500  0.54995800  0.72892900  1.0
  O  O42  1  0.72931500  0.95004200  0.72892900  1.0
  O  O43  1  0.27068500  0.45004200  0.27107100  1.0
  O  O44  1  0.20811000  0.25000000  0.40037100  1.0
  O  O45  1  0.79189000  0.75000000  0.59962900  1.0
  O  O46  1  0.49105800  0.25000000  0.34293800  1.0
  O  O47  1  0.50894200  0.75000000  0.65706200  1.0
  O  O48  1  0.12702900  0.94441100  0.12230300  1.0
  O  O49  1  0.87297100  0.44441100  0.87769700  1.0
  O  O50  1  0.87297100  0.05558900  0.87769700  1.0
  O  O51  1  0.12702900  0.55558900  0.12230300  1.0
  O  O52  1  0.14095800  0.75000000  0.98486200  1.0
  O  O53  1  0.85904200  0.25000000  0.01513800  1.0
  O  O54  1  0.83198100  0.95038200  0.39663900  1.0
  O  O55  1  0.16801900  0.45038200  0.60336100  1.0
  O  O56  1  0.16801900  0.04961800  0.60336100  1.0
  O  O57  1  0.83198100  0.54961800  0.39663900  1.0
  O  O58  1  0.04748300  0.75000000  0.47130400  1.0
  O  O59  1  0.95251700  0.25000000  0.52869600  1.0
  O  O60  1  0.03526000  0.75000000  0.31308900  1.0
  O  O61  1  0.96474000  0.25000000  0.68691100  1.0
  O  O62  1  0.88678700  0.75000000  0.06237000  1.0
  O  O63  1  0.11321300  0.25000000  0.93763000  1.0
