# generated using pymatgen
data_Ag2BiSbTe4
_symmetry_space_group_name_H-M   'P 1'
_cell_length_a   6.19625000
_cell_length_b   6.19625000
_cell_length_c   12.31451601
_cell_angle_alpha   90.00000000
_cell_angle_beta   90.00000000
_cell_angle_gamma   90.00000000
_symmetry_Int_Tables_number   1
_chemical_formula_structural   Ag2BiSbTe4
_chemical_formula_sum   'Ag4 Bi2 Sb2 Te8'
_cell_volume   472.79754360
_cell_formula_units_Z   2
loop_
 _symmetry_equiv_pos_site_id
 _symmetry_equiv_pos_as_xyz
  1  'x, y, z'
loop_
 _atom_site_type_symbol
 _atom_site_label
 _atom_site_symmetry_multiplicity
 _atom_site_fract_x
 _atom_site_fract_y
 _atom_site_fract_z
 _atom_site_occupancy
  Ag  Ag0  1  0.50000000  0.50000000  0.00000000  1.0
  Ag  Ag1  1  0.50000000  0.00000000  0.25000000  1.0
  Ag  Ag2  1  0.00000000  0.00000000  0.50000000  1.0
  Ag  Ag3  1  0.00000000  0.50000000  0.75000000  1.0
  Bi  Bi4  1  0.00000000  0.00000000  0.00000000  1.0
  Bi  Bi5  1  0.50000000  0.50000000  0.50000000  1.0
  Sb  Sb6  1  0.00000000  0.50000000  0.25000000  1.0
  Sb  Sb7  1  0.50000000  0.00000000  0.75000000  1.0
  Te  Te8  1  0.50000000  0.00000000  0.49983100  1.0
  Te  Te9  1  0.00000000  0.00000000  0.25433600  1.0
  Te  Te10  1  0.50000000  0.00000000  0.00016900  1.0
  Te  Te11  1  0.50000000  0.50000000  0.24566400  1.0
  Te  Te12  1  0.00000000  0.50000000  0.99983100  1.0
  Te  Te13  1  0.50000000  0.50000000  0.75433600  1.0
  Te  Te14  1  0.00000000  0.50000000  0.50016900  1.0
  Te  Te15  1  0.00000000  0.00000000  0.74566400  1.0
