# generated using pymatgen
data_Ag2Ge(S2O7)3
_symmetry_space_group_name_H-M   'P 1'
_cell_length_a   16.57367424
_cell_length_b   16.57367424
_cell_length_c   10.69771702
_cell_angle_alpha   90.00000000
_cell_angle_beta   90.00000000
_cell_angle_gamma   120.00000000
_symmetry_Int_Tables_number   1
_chemical_formula_structural   Ag2Ge(S2O7)3
_chemical_formula_sum   'Ag12 Ge6 S36 O126'
_cell_volume   2544.83327126
_cell_formula_units_Z   6
loop_
 _symmetry_equiv_pos_site_id
 _symmetry_equiv_pos_as_xyz
  1  'x, y, z'
loop_
 _atom_site_type_symbol
 _atom_site_label
 _atom_site_symmetry_multiplicity
 _atom_site_fract_x
 _atom_site_fract_y
 _atom_site_fract_z
 _atom_site_occupancy
  Ag  Ag0  1  0.63959029  0.00239774  0.93834696  1.0
  Ag  Ag1  1  0.36280745  0.36040971  0.93834696  1.0
  Ag  Ag2  1  0.99760226  0.63719255  0.93834696  1.0
  Ag  Ag3  1  0.36040971  0.99760226  0.06165304  1.0
  Ag  Ag4  1  0.63719255  0.63959029  0.06165304  1.0
  Ag  Ag5  1  0.00239774  0.36280745  0.06165304  1.0
  Ag  Ag6  1  0.68432639  0.98815571  0.42396936  1.0
  Ag  Ag7  1  0.30382932  0.31567361  0.42396936  1.0
  Ag  Ag8  1  0.01184429  0.69617068  0.42396936  1.0
  Ag  Ag9  1  0.31567361  0.01184429  0.57603064  1.0
  Ag  Ag10  1  0.69617068  0.68432639  0.57603064  1.0
  Ag  Ag11  1  0.98815571  0.30382932  0.57603064  1.0
  Ge  Ge12  1  0.00000000  0.00000000  0.75638775  1.0
  Ge  Ge13  1  0.00000000  0.00000000  0.24361225  1.0
  Ge  Ge14  1  0.33333333  0.66666667  0.27775484  1.0
  Ge  Ge15  1  0.66666667  0.33333333  0.72224516  1.0
  Ge  Ge16  1  0.33333333  0.66666667  0.77368227  1.0
  Ge  Ge17  1  0.66666667  0.33333333  0.22631773  1.0
  S  S18  1  0.82554168  0.81808734  0.84423050  1.0
  S  S19  1  0.99254566  0.17445832  0.84423050  1.0
  S  S20  1  0.18191266  0.00745434  0.84423050  1.0
  S  S21  1  0.17445832  0.18191266  0.15576950  1.0
  S  S22  1  0.00745434  0.82554168  0.15576950  1.0
  S  S23  1  0.81808734  0.99254566  0.15576950  1.0
  S  S24  1  0.34904871  0.85428279  0.35434194  1.0
  S  S25  1  0.50523408  0.65095129  0.35434194  1.0
  S  S26  1  0.14571721  0.49476592  0.35434194  1.0
  S  S27  1  0.65095129  0.14571721  0.64565806  1.0
  S  S28  1  0.49476592  0.34904871  0.64565806  1.0
  S  S29  1  0.85428279  0.50523408  0.64565806  1.0
  S  S30  1  0.85227520  0.05694600  0.66770232  1.0
  S  S31  1  0.20467080  0.14772480  0.66770232  1.0
  S  S32  1  0.94305400  0.79532920  0.66770232  1.0
  S  S33  1  0.14772480  0.94305400  0.33229768  1.0
  S  S34  1  0.79532920  0.85227520  0.33229768  1.0
  S  S35  1  0.05694600  0.20467080  0.33229768  1.0
  S  S36  1  0.51109072  0.84065938  0.66834085  1.0
  S  S37  1  0.32956866  0.48890928  0.66834085  1.0
  S  S38  1  0.15934062  0.67043134  0.66834085  1.0
  S  S39  1  0.48890928  0.15934062  0.33165915  1.0
  S  S40  1  0.67043134  0.51109072  0.33165915  1.0
  S  S41  1  0.84065938  0.32956866  0.33165915  1.0
  S  S42  1  0.73922319  0.19876878  0.13702925  1.0
  S  S43  1  0.45954559  0.26077681  0.13702925  1.0
  S  S44  1  0.80123122  0.54045441  0.13702925  1.0
  S  S45  1  0.26077681  0.80123122  0.86297075  1.0
  S  S46  1  0.54045441  0.73922319  0.86297075  1.0
  S  S47  1  0.19876878  0.45954559  0.86297075  1.0
  S  S48  1  0.49027419  0.86796568  0.18497137  1.0
  S  S49  1  0.37769149  0.50972581  0.18497137  1.0
  S  S50  1  0.13203432  0.62230851  0.18497137  1.0
  S  S51  1  0.50972581  0.13203432  0.81502863  1.0
  S  S52  1  0.62230851  0.49027419  0.81502863  1.0
  S  S53  1  0.86796568  0.37769149  0.81502863  1.0
  O  O54  1  0.89869109  0.92074233  0.86377033  1.0
  O  O55  1  0.02205124  0.10130891  0.86377033  1.0
  O  O56  1  0.07925767  0.97794876  0.86377033  1.0
  O  O57  1  0.10130891  0.07925767  0.13622967  1.0
  O  O58  1  0.97794876  0.89869109  0.13622967  1.0
  O  O59  1  0.92074233  0.02205124  0.13622967  1.0
  O  O60  1  0.31993548  0.75246506  0.38265085  1.0
  O  O61  1  0.43252958  0.68006452  0.38265085  1.0
  O  O62  1  0.24753494  0.56747042  0.38265085  1.0
  O  O63  1  0.68006452  0.24753494  0.61734915  1.0
  O  O64  1  0.56747042  0.31993548  0.61734915  1.0
  O  O65  1  0.75246506  0.43252958  0.61734915  1.0
  O  O66  1  0.92268455  0.02424182  0.64766491  1.0
  O  O67  1  0.10155727  0.07731545  0.64766491  1.0
  O  O68  1  0.97575818  0.89844273  0.64766491  1.0
  O  O69  1  0.07731545  0.97575818  0.35233509  1.0
  O  O70  1  0.89844273  0.92268455  0.35233509  1.0
  O  O71  1  0.02424182  0.10155727  0.35233509  1.0
  O  O72  1  0.78731559  0.77714605  0.96286678  1.0
  O  O73  1  0.98983046  0.21268441  0.96286678  1.0
  O  O74  1  0.22285395  0.01016954  0.96286678  1.0
  O  O75  1  0.21268441  0.22285395  0.03713322  1.0
  O  O76  1  0.01016954  0.78731559  0.03713322  1.0
  O  O77  1  0.77714605  0.98983046  0.03713322  1.0
  O  O78  1  0.40678677  0.76976354  0.66549474  1.0
  O  O79  1  0.36297677  0.59321323  0.66549474  1.0
  O  O80  1  0.23023646  0.63702323  0.66549474  1.0
  O  O81  1  0.59321323  0.23023646  0.33450526  1.0
  O  O82  1  0.63702323  0.40678677  0.33450526  1.0
  O  O83  1  0.76976354  0.36297677  0.33450526  1.0
  O  O84  1  0.86672741  0.12514866  0.57322464  1.0
  O  O85  1  0.25842125  0.13327259  0.57322464  1.0
  O  O86  1  0.87485134  0.74157875  0.57322464  1.0
  O  O87  1  0.13327259  0.87485134  0.42677536  1.0
  O  O88  1  0.74157875  0.86672741  0.42677536  1.0
  O  O89  1  0.12514866  0.25842125  0.42677536  1.0
  O  O90  1  0.76497177  0.80527093  0.74012624  1.0
  O  O91  1  0.04029916  0.23502823  0.74012624  1.0
  O  O92  1  0.19472907  0.95970084  0.74012624  1.0
  O  O93  1  0.23502823  0.19472907  0.25987376  1.0
  O  O94  1  0.95970084  0.76497177  0.25987376  1.0
  O  O95  1  0.80527093  0.04029916  0.25987376  1.0
  O  O96  1  0.77752973  0.22092825  0.28338060  1.0
  O  O97  1  0.44339852  0.22247027  0.28338060  1.0
  O  O98  1  0.77907175  0.55660148  0.28338060  1.0
  O  O99  1  0.22247027  0.77907175  0.71661940  1.0
  O  O100  1  0.55660148  0.77752973  0.71661940  1.0
  O  O101  1  0.22092825  0.44339852  0.71661940  1.0
  O  O102  1  0.41797170  0.76515810  0.16921902  1.0
  O  O103  1  0.34718640  0.58202830  0.16921902  1.0
  O  O104  1  0.23484190  0.65281360  0.16921902  1.0
  O  O105  1  0.58202830  0.23484190  0.83078098  1.0
  O  O106  1  0.65281360  0.41797170  0.83078098  1.0
  O  O107  1  0.76515810  0.34718640  0.83078098  1.0
  O  O108  1  0.45895821  0.89857432  0.31610122  1.0
  O  O109  1  0.43961611  0.54104179  0.31610122  1.0
  O  O110  1  0.10142568  0.56038389  0.31610122  1.0
  O  O111  1  0.54104179  0.10142568  0.68389878  1.0
  O  O112  1  0.56038389  0.45895821  0.68389878  1.0
  O  O113  1  0.89857432  0.43961611  0.68389878  1.0
  O  O114  1  0.88217093  0.10991248  0.80527232  1.0
  O  O115  1  0.22774155  0.11782907  0.80527232  1.0
  O  O116  1  0.89008752  0.77225845  0.80527232  1.0
  O  O117  1  0.11782907  0.89008752  0.19472768  1.0
  O  O118  1  0.77225845  0.88217093  0.19472768  1.0
  O  O119  1  0.10991248  0.22774155  0.19472768  1.0
  O  O120  1  0.35330245  0.89936057  0.47083266  1.0
  O  O121  1  0.54605812  0.64669755  0.47083266  1.0
  O  O122  1  0.10063943  0.45394188  0.47083266  1.0
  O  O123  1  0.64669755  0.10063943  0.52916734  1.0
  O  O124  1  0.45394188  0.35330245  0.52916734  1.0
  O  O125  1  0.89936057  0.54605812  0.52916734  1.0
  O  O126  1  0.53304466  0.91335490  0.75785686  1.0
  O  O127  1  0.38031024  0.46695534  0.75785686  1.0
  O  O128  1  0.08664510  0.61968976  0.75785686  1.0
  O  O129  1  0.46695534  0.08664510  0.24214314  1.0
  O  O130  1  0.61968976  0.53304466  0.24214314  1.0
  O  O131  1  0.91335490  0.38031024  0.24214314  1.0
  O  O132  1  0.30186259  0.86462229  0.24848888  1.0
  O  O133  1  0.56275970  0.69813741  0.24848888  1.0
  O  O134  1  0.13537771  0.43724030  0.24848888  1.0
  O  O135  1  0.69813741  0.13537771  0.75151112  1.0
  O  O136  1  0.43724030  0.30186259  0.75151112  1.0
  O  O137  1  0.86462229  0.56275970  0.75151112  1.0
  O  O138  1  0.70197079  0.26539807  0.11692557  1.0
  O  O139  1  0.56342728  0.29802921  0.11692557  1.0
  O  O140  1  0.73460193  0.43657272  0.11692557  1.0
  O  O141  1  0.29802921  0.73460193  0.88307443  1.0
  O  O142  1  0.43657272  0.70197079  0.88307443  1.0
  O  O143  1  0.26539807  0.56342728  0.88307443  1.0
  O  O144  1  0.54475974  0.86421891  0.54258503  1.0
  O  O145  1  0.31945917  0.45524026  0.54258503  1.0
  O  O146  1  0.13578109  0.68054083  0.54258503  1.0
  O  O147  1  0.45524026  0.13578109  0.45741497  1.0
  O  O148  1  0.68054083  0.54475974  0.45741497  1.0
  O  O149  1  0.86421891  0.31945917  0.45741497  1.0
  O  O150  1  0.75922798  0.98310267  0.68937950  1.0
  O  O151  1  0.22387469  0.24077202  0.68937950  1.0
  O  O152  1  0.01689733  0.77612531  0.68937950  1.0
  O  O153  1  0.24077202  0.01689733  0.31062050  1.0
  O  O154  1  0.77612531  0.75922798  0.31062050  1.0
  O  O155  1  0.98310267  0.22387469  0.31062050  1.0
  O  O156  1  0.48113345  0.91896283  0.08214468  1.0
  O  O157  1  0.43782938  0.51886655  0.08214468  1.0
  O  O158  1  0.08103717  0.56217062  0.08214468  1.0
  O  O159  1  0.51886655  0.08103717  0.91785532  1.0
  O  O160  1  0.56217062  0.48113345  0.91785532  1.0
  O  O161  1  0.91896283  0.43782938  0.91785532  1.0
  O  O162  1  0.81649035  0.22282859  0.05510660  1.0
  O  O163  1  0.40633824  0.18350965  0.05510660  1.0
  O  O164  1  0.77717141  0.59366176  0.05510660  1.0
  O  O165  1  0.18350965  0.77717141  0.94489340  1.0
  O  O166  1  0.59366176  0.81649035  0.94489340  1.0
  O  O167  1  0.22282859  0.40633824  0.94489340  1.0
  O  O168  1  0.58154830  0.88591084  0.21812330  1.0
  O  O169  1  0.30436254  0.41845170  0.21812330  1.0
  O  O170  1  0.11408916  0.69563746  0.21812330  1.0
  O  O171  1  0.41845170  0.11408916  0.78187670  1.0
  O  O172  1  0.69563746  0.58154830  0.78187670  1.0
  O  O173  1  0.88591084  0.30436254  0.78187670  1.0
  O  O174  1  0.66650150  0.10302131  0.14351173  1.0
  O  O175  1  0.43651981  0.33349850  0.14351173  1.0
  O  O176  1  0.89697869  0.56348019  0.14351173  1.0
  O  O177  1  0.33349850  0.89697869  0.85648827  1.0
  O  O178  1  0.56348019  0.66650150  0.85648827  1.0
  O  O179  1  0.10302131  0.43651981  0.85648827  1.0
