# generated using pymatgen
data_Ag3Ge5P6
_symmetry_space_group_name_H-M   'P 1'
_cell_length_a   10.35479500
_cell_length_b   10.35479500
_cell_length_c   10.35479500
_cell_angle_alpha   90.00000000
_cell_angle_beta   90.00000000
_cell_angle_gamma   90.00000000
_symmetry_Int_Tables_number   1
_chemical_formula_structural   Ag3Ge5P6
_chemical_formula_sum   'Ag12 Ge20 P24'
_cell_volume   1110.25954618
_cell_formula_units_Z   4
loop_
 _symmetry_equiv_pos_site_id
 _symmetry_equiv_pos_as_xyz
  1  'x, y, z'
loop_
 _atom_site_type_symbol
 _atom_site_label
 _atom_site_symmetry_multiplicity
 _atom_site_fract_x
 _atom_site_fract_y
 _atom_site_fract_z
 _atom_site_occupancy
  Ag  Ag0  1  0.80432562  0.00000000  0.00000000  1.0
  Ag  Ag1  1  0.00000000  0.00000000  0.80432562  1.0
  Ag  Ag2  1  0.00000000  0.00000000  0.19567438  1.0
  Ag  Ag3  1  0.00000000  0.19567438  0.00000000  1.0
  Ag  Ag4  1  0.00000000  0.80432562  0.00000000  1.0
  Ag  Ag5  1  0.19567438  0.00000000  0.00000000  1.0
  Ag  Ag6  1  0.30432562  0.50000000  0.50000000  1.0
  Ag  Ag7  1  0.50000000  0.50000000  0.30432562  1.0
  Ag  Ag8  1  0.50000000  0.50000000  0.69567438  1.0
  Ag  Ag9  1  0.50000000  0.69567438  0.50000000  1.0
  Ag  Ag10  1  0.50000000  0.30432562  0.50000000  1.0
  Ag  Ag11  1  0.69567438  0.50000000  0.50000000  1.0
  Ge  Ge12  1  0.50000000  0.25000000  0.00000000  1.0
  Ge  Ge13  1  0.50000000  0.00000000  0.75000000  1.0
  Ge  Ge14  1  0.00000000  0.50000000  0.75000000  1.0
  Ge  Ge15  1  0.25000000  0.00000000  0.50000000  1.0
  Ge  Ge16  1  0.21226626  0.21226626  0.78773374  1.0
  Ge  Ge17  1  0.71226626  0.28773374  0.71226626  1.0
  Ge  Ge18  1  0.28773374  0.71226626  0.71226626  1.0
  Ge  Ge19  1  0.28773374  0.28773374  0.28773374  1.0
  Ge  Ge20  1  0.25000000  0.50000000  0.00000000  1.0
  Ge  Ge21  1  0.00000000  0.25000000  0.50000000  1.0
  Ge  Ge22  1  0.00000000  0.75000000  0.50000000  1.0
  Ge  Ge23  1  0.00000000  0.50000000  0.25000000  1.0
  Ge  Ge24  1  0.50000000  0.00000000  0.25000000  1.0
  Ge  Ge25  1  0.75000000  0.50000000  0.00000000  1.0
  Ge  Ge26  1  0.71226626  0.71226626  0.28773374  1.0
  Ge  Ge27  1  0.21226626  0.78773374  0.21226626  1.0
  Ge  Ge28  1  0.78773374  0.21226626  0.21226626  1.0
  Ge  Ge29  1  0.78773374  0.78773374  0.78773374  1.0
  Ge  Ge30  1  0.75000000  0.00000000  0.50000000  1.0
  Ge  Ge31  1  0.50000000  0.75000000  0.00000000  1.0
  P  P32  1  0.37167593  0.37167593  0.86088098  1.0
  P  P33  1  0.12832407  0.36088098  0.12832407  1.0
  P  P34  1  0.36088098  0.12832407  0.12832407  1.0
  P  P35  1  0.63911902  0.12832407  0.87167593  1.0
  P  P36  1  0.12832407  0.63911902  0.87167593  1.0
  P  P37  1  0.37167593  0.13911902  0.62832407  1.0
  P  P38  1  0.13911902  0.37167593  0.62832407  1.0
  P  P39  1  0.87167593  0.12832407  0.63911902  1.0
  P  P40  1  0.12832407  0.87167593  0.63911902  1.0
  P  P41  1  0.12832407  0.12832407  0.36088098  1.0
  P  P42  1  0.36088098  0.87167593  0.87167593  1.0
  P  P43  1  0.87167593  0.36088098  0.87167593  1.0
  P  P44  1  0.87167593  0.87167593  0.36088098  1.0
  P  P45  1  0.62832407  0.86088098  0.62832407  1.0
  P  P46  1  0.86088098  0.62832407  0.62832407  1.0
  P  P47  1  0.13911902  0.62832407  0.37167593  1.0
  P  P48  1  0.62832407  0.13911902  0.37167593  1.0
  P  P49  1  0.87167593  0.63911902  0.12832407  1.0
  P  P50  1  0.63911902  0.87167593  0.12832407  1.0
  P  P51  1  0.37167593  0.62832407  0.13911902  1.0
  P  P52  1  0.62832407  0.37167593  0.13911902  1.0
  P  P53  1  0.62832407  0.62832407  0.86088098  1.0
  P  P54  1  0.86088098  0.37167593  0.37167593  1.0
  P  P55  1  0.37167593  0.86088098  0.37167593  1.0
