# generated using pymatgen
data_Ag2Bi2SeS3
_symmetry_space_group_name_H-M   'P 1'
_cell_length_a   5.64945000
_cell_length_b   5.78137200
_cell_length_c   11.57078599
_cell_angle_alpha   90.00000000
_cell_angle_beta   90.00000000
_cell_angle_gamma   90.00000000
_symmetry_Int_Tables_number   1
_chemical_formula_structural   Ag2Bi2SeS3
_chemical_formula_sum   'Ag4 Bi4 Se2 S6'
_cell_volume   377.92006023
_cell_formula_units_Z   2
loop_
 _symmetry_equiv_pos_site_id
 _symmetry_equiv_pos_as_xyz
  1  'x, y, z'
loop_
 _atom_site_type_symbol
 _atom_site_label
 _atom_site_symmetry_multiplicity
 _atom_site_fract_x
 _atom_site_fract_y
 _atom_site_fract_z
 _atom_site_occupancy
  Ag  Ag0  1  0.00000000  0.00000000  0.00433200  1.0
  Ag  Ag1  1  0.00000000  0.50000000  0.24980100  1.0
  Ag  Ag2  1  0.50000000  0.50000000  0.50433200  1.0
  Ag  Ag3  1  0.50000000  0.00000000  0.74980100  1.0
  Bi  Bi4  1  0.00000000  0.00000000  0.49410800  1.0
  Bi  Bi5  1  0.50000000  0.00000000  0.24815900  1.0
  Bi  Bi6  1  0.50000000  0.50000000  0.99410800  1.0
  Bi  Bi7  1  0.00000000  0.50000000  0.74815900  1.0
  Se  Se8  1  0.50000000  0.50000000  0.25191300  1.0
  Se  Se9  1  0.00000000  0.00000000  0.75191300  1.0
  S  S10  1  0.50000000  0.00000000  0.49455700  1.0
  S  S11  1  0.00000000  0.00000000  0.25267900  1.0
  S  S12  1  0.50000000  0.00000000  0.00445100  1.0
  S  S13  1  0.00000000  0.50000000  0.99455700  1.0
  S  S14  1  0.50000000  0.50000000  0.75267900  1.0
  S  S15  1  0.00000000  0.50000000  0.50445100  1.0
