# generated using pymatgen
data_Ag3SI
_symmetry_space_group_name_H-M   'P 1'
_cell_length_a   9.76759600
_cell_length_b   10.00450600
_cell_length_c   10.12110600
_cell_angle_alpha   90.00000000
_cell_angle_beta   90.00000000
_cell_angle_gamma   90.00000000
_symmetry_Int_Tables_number   1
_chemical_formula_structural   Ag3SI
_chemical_formula_sum   'Ag24 S8 I8'
_cell_volume   989.03420290
_cell_formula_units_Z   8
loop_
 _symmetry_equiv_pos_site_id
 _symmetry_equiv_pos_as_xyz
  1  'x, y, z'
loop_
 _atom_site_type_symbol
 _atom_site_label
 _atom_site_symmetry_multiplicity
 _atom_site_fract_x
 _atom_site_fract_y
 _atom_site_fract_z
 _atom_site_occupancy
  Ag  Ag0  1  0.75000000  0.25000000  0.44201800  1.0
  Ag  Ag1  1  0.00000000  0.19733700  0.25358200  1.0
  Ag  Ag2  1  0.50000000  0.00000000  0.45238600  1.0
  Ag  Ag3  1  0.75000000  0.75000000  0.44201800  1.0
  Ag  Ag4  1  0.00000000  0.80266300  0.25358200  1.0
  Ag  Ag5  1  0.50000000  0.00000000  0.05412600  1.0
  Ag  Ag6  1  0.75000000  0.75000000  0.94201800  1.0
  Ag  Ag7  1  0.00000000  0.69733700  0.75358200  1.0
  Ag  Ag8  1  0.50000000  0.50000000  0.95238600  1.0
  Ag  Ag9  1  0.75000000  0.25000000  0.94201800  1.0
  Ag  Ag10  1  0.00000000  0.30266300  0.75358200  1.0
  Ag  Ag11  1  0.50000000  0.50000000  0.55412600  1.0
  Ag  Ag12  1  0.25000000  0.25000000  0.94201800  1.0
  Ag  Ag13  1  0.50000000  0.19733700  0.75358200  1.0
  Ag  Ag14  1  0.00000000  0.00000000  0.95238600  1.0
  Ag  Ag15  1  0.25000000  0.75000000  0.94201800  1.0
  Ag  Ag16  1  0.50000000  0.80266300  0.75358200  1.0
  Ag  Ag17  1  0.00000000  0.00000000  0.55412600  1.0
  Ag  Ag18  1  0.25000000  0.75000000  0.44201800  1.0
  Ag  Ag19  1  0.50000000  0.69733700  0.25358200  1.0
  Ag  Ag20  1  0.00000000  0.50000000  0.45238600  1.0
  Ag  Ag21  1  0.25000000  0.25000000  0.44201800  1.0
  Ag  Ag22  1  0.50000000  0.30266300  0.25358200  1.0
  Ag  Ag23  1  0.00000000  0.50000000  0.05412600  1.0
  S  S24  1  0.50000000  0.74930200  0.00787800  1.0
  S  S25  1  0.50000000  0.25069800  0.00787800  1.0
  S  S26  1  0.50000000  0.24930200  0.50787800  1.0
  S  S27  1  0.50000000  0.75069800  0.50787800  1.0
  S  S28  1  0.00000000  0.74930200  0.50787800  1.0
  S  S29  1  0.00000000  0.25069800  0.50787800  1.0
  S  S30  1  0.00000000  0.24930200  0.00787800  1.0
  S  S31  1  0.00000000  0.75069800  0.00787800  1.0
  I  I32  1  0.25077450  0.00000000  0.24576650  1.0
  I  I33  1  0.74922550  0.00000000  0.24576650  1.0
  I  I34  1  0.25077450  0.50000000  0.74576650  1.0
  I  I35  1  0.74922550  0.50000000  0.74576650  1.0
  I  I36  1  0.75077450  0.00000000  0.74576650  1.0
  I  I37  1  0.24922550  0.00000000  0.74576650  1.0
  I  I38  1  0.75077450  0.50000000  0.24576650  1.0
  I  I39  1  0.24922550  0.50000000  0.24576650  1.0
