# generated using pymatgen
data_Ag2HgGeS4
_symmetry_space_group_name_H-M   'P 1'
_cell_length_a   6.71201944
_cell_length_b   7.02116500
_cell_length_c   10.55121034
_cell_angle_alpha   90.00000000
_cell_angle_beta   129.38793606
_cell_angle_gamma   90.00000000
_symmetry_Int_Tables_number   1
_chemical_formula_structural   Ag2HgGeS4
_chemical_formula_sum   'Ag4 Hg2 Ge2 S8'
_cell_volume   384.29925592
_cell_formula_units_Z   2
loop_
 _symmetry_equiv_pos_site_id
 _symmetry_equiv_pos_as_xyz
  1  'x, y, z'
loop_
 _atom_site_type_symbol
 _atom_site_label
 _atom_site_symmetry_multiplicity
 _atom_site_fract_x
 _atom_site_fract_y
 _atom_site_fract_z
 _atom_site_occupancy
  Ag  Ag0  1  0.78148700  0.18821600  0.75469600  1.0
  Ag  Ag1  1  0.78148700  0.81178400  0.25469600  1.0
  Ag  Ag2  1  0.54527600  0.65271000  0.50005200  1.0
  Ag  Ag3  1  0.54527600  0.34729000  0.00005200  1.0
  Hg  Hg4  1  0.27329200  0.18875200  0.24486700  1.0
  Hg  Hg5  1  0.27329200  0.81124800  0.74486700  1.0
  Ge  Ge6  1  0.04285900  0.31770200  0.50032600  1.0
  Ge  Ge7  1  0.04285900  0.68229800  0.00032600  1.0
  S  S8  1  0.15921100  0.61854200  0.49688100  1.0
  S  S9  1  0.15921100  0.38145800  0.99688100  1.0
  S  S10  1  0.37949900  0.16903900  0.73019900  1.0
  S  S11  1  0.91499100  0.16641000  0.26981400  1.0
  S  S12  1  0.91499100  0.83359000  0.76981400  1.0
  S  S13  1  0.37949900  0.83096100  0.23019900  1.0
  S  S14  1  0.70938500  0.32148400  0.50316500  1.0
  S  S15  1  0.70938500  0.67851600  0.00316500  1.0
