# generated using pymatgen
data_Ag2Sn(S2O7)3
_symmetry_space_group_name_H-M   'P 1'
_cell_length_a   16.99068543
_cell_length_b   16.99068543
_cell_length_c   10.61342223
_cell_angle_alpha   90.00000000
_cell_angle_beta   90.00000000
_cell_angle_gamma   120.00000000
_symmetry_Int_Tables_number   1
_chemical_formula_structural   Ag2Sn(S2O7)3
_chemical_formula_sum   'Ag12 Sn6 S36 O126'
_cell_volume   2653.43144970
_cell_formula_units_Z   6
loop_
 _symmetry_equiv_pos_site_id
 _symmetry_equiv_pos_as_xyz
  1  'x, y, z'
loop_
 _atom_site_type_symbol
 _atom_site_label
 _atom_site_symmetry_multiplicity
 _atom_site_fract_x
 _atom_site_fract_y
 _atom_site_fract_z
 _atom_site_occupancy
  Ag  Ag0  1  0.36403339  0.36133639  0.43619020  1.0
  Ag  Ag1  1  0.63866361  0.00269700  0.43619020  1.0
  Ag  Ag2  1  0.99730300  0.63596661  0.43619020  1.0
  Ag  Ag3  1  0.63596661  0.63866361  0.56380980  1.0
  Ag  Ag4  1  0.36133639  0.99730300  0.56380980  1.0
  Ag  Ag5  1  0.00269700  0.36403339  0.56380980  1.0
  Ag  Ag6  1  0.30309371  0.31399071  0.92334338  1.0
  Ag  Ag7  1  0.68600929  0.98910300  0.92334338  1.0
  Ag  Ag8  1  0.01089700  0.69690629  0.92334338  1.0
  Ag  Ag9  1  0.69690629  0.68600929  0.07665662  1.0
  Ag  Ag10  1  0.31399071  0.01089700  0.07665662  1.0
  Ag  Ag11  1  0.98910300  0.30309371  0.07665662  1.0
  Sn  Sn12  1  0.66666667  0.33333333  0.21804079  1.0
  Sn  Sn13  1  0.33333333  0.66666667  0.78195921  1.0
  Sn  Sn14  1  0.33333333  0.66666667  0.27528386  1.0
  Sn  Sn15  1  0.66666667  0.33333333  0.72471614  1.0
  Sn  Sn16  1  0.00000000  0.00000000  0.74353148  1.0
  Sn  Sn17  1  0.00000000  0.00000000  0.25646852  1.0
  S  S18  1  0.15810227  0.67533553  0.16505071  1.0
  S  S19  1  0.32466447  0.48276674  0.16505071  1.0
  S  S20  1  0.51723326  0.84189773  0.16505071  1.0
  S  S21  1  0.84189773  0.32466447  0.83494929  1.0
  S  S22  1  0.67533553  0.51723326  0.83494929  1.0
  S  S23  1  0.48276674  0.15810227  0.83494929  1.0
  S  S24  1  0.86031713  0.50741165  0.14248638  1.0
  S  S25  1  0.49258835  0.35290548  0.14248638  1.0
  S  S26  1  0.64709452  0.13968287  0.14248638  1.0
  S  S27  1  0.13968287  0.49258835  0.85751362  1.0
  S  S28  1  0.50741165  0.64709452  0.85751362  1.0
  S  S29  1  0.35290548  0.86031713  0.85751362  1.0
  S  S30  1  0.87359818  0.38017020  0.31221138  1.0
  S  S31  1  0.61982980  0.49342798  0.31221138  1.0
  S  S32  1  0.50657202  0.12640182  0.31221138  1.0
  S  S33  1  0.12640182  0.61982980  0.68778862  1.0
  S  S34  1  0.38017020  0.50657202  0.68778862  1.0
  S  S35  1  0.49342798  0.87359818  0.68778862  1.0
  S  S36  1  0.06291547  0.21074262  0.83236050  1.0
  S  S37  1  0.78925738  0.85217285  0.83236050  1.0
  S  S38  1  0.14782715  0.93708453  0.83236050  1.0
  S  S39  1  0.93708453  0.78925738  0.16763950  1.0
  S  S40  1  0.21074262  0.14782715  0.16763950  1.0
  S  S41  1  0.85217285  0.06291547  0.16763950  1.0
  S  S42  1  0.25515242  0.80070481  0.36865930  1.0
  S  S43  1  0.19929519  0.45444761  0.36865930  1.0
  S  S44  1  0.54555239  0.74484758  0.36865930  1.0
  S  S45  1  0.74484758  0.19929519  0.63134070  1.0
  S  S46  1  0.80070481  0.54555239  0.63134070  1.0
  S  S47  1  0.45444761  0.25515242  0.63134070  1.0
  S  S48  1  0.17804023  0.18592761  0.65364958  1.0
  S  S49  1  0.81407239  0.99211262  0.65364958  1.0
  S  S50  1  0.00788738  0.82195977  0.65364958  1.0
  S  S51  1  0.82195977  0.81407239  0.34635042  1.0
  S  S52  1  0.18592761  0.00788738  0.34635042  1.0
  S  S53  1  0.99211262  0.17804023  0.34635042  1.0
  O  O54  1  0.76187924  0.43918468  0.10743119  1.0
  O  O55  1  0.56081532  0.32269456  0.10743119  1.0
  O  O56  1  0.67730544  0.23812076  0.10743119  1.0
  O  O57  1  0.23812076  0.56081532  0.89256881  1.0
  O  O58  1  0.43918468  0.67730544  0.89256881  1.0
  O  O59  1  0.32269456  0.76187924  0.89256881  1.0
  O  O60  1  0.22512144  0.64058815  0.15786100  1.0
  O  O61  1  0.35941185  0.58453329  0.15786100  1.0
  O  O62  1  0.41546671  0.77487856  0.15786100  1.0
  O  O63  1  0.77487856  0.35941185  0.84213900  1.0
  O  O64  1  0.64058815  0.41546671  0.84213900  1.0
  O  O65  1  0.58453329  0.22512144  0.84213900  1.0
  O  O66  1  0.02934384  0.11057520  0.85812325  1.0
  O  O67  1  0.88942480  0.91876864  0.85812325  1.0
  O  O68  1  0.08123136  0.97065616  0.85812325  1.0
  O  O69  1  0.97065616  0.88942480  0.14187675  1.0
  O  O70  1  0.11057520  0.08123136  0.14187675  1.0
  O  O71  1  0.91876864  0.02934384  0.14187675  1.0
  O  O72  1  0.22208110  0.78013226  0.21879214  1.0
  O  O73  1  0.21986774  0.44194884  0.21879214  1.0
  O  O74  1  0.55805116  0.77791890  0.21879214  1.0
  O  O75  1  0.77791890  0.21986774  0.78120786  1.0
  O  O76  1  0.78013226  0.55805116  0.78120786  1.0
  O  O77  1  0.44194884  0.22208110  0.78120786  1.0
  O  O78  1  0.77363708  0.34944319  0.33211647  1.0
  O  O79  1  0.65055681  0.42419389  0.33211647  1.0
  O  O80  1  0.57580611  0.22636292  0.33211647  1.0
  O  O81  1  0.22636292  0.65055681  0.66788353  1.0
  O  O82  1  0.34944319  0.57580611  0.66788353  1.0
  O  O83  1  0.42419389  0.77363708  0.66788353  1.0
  O  O84  1  0.10805143  0.08656109  0.62843018  1.0
  O  O85  1  0.91343891  0.02149034  0.62843018  1.0
  O  O86  1  0.97850966  0.89194857  0.62843018  1.0
  O  O87  1  0.89194857  0.91343891  0.37156982  1.0
  O  O88  1  0.08656109  0.97850966  0.37156982  1.0
  O  O89  1  0.02149034  0.10805143  0.37156982  1.0
  O  O90  1  0.11343468  0.22930363  0.69252899  1.0
  O  O91  1  0.77069637  0.88413105  0.69252899  1.0
  O  O92  1  0.11586895  0.88656532  0.69252899  1.0
  O  O93  1  0.88656532  0.77069637  0.30747101  1.0
  O  O94  1  0.22930363  0.11586895  0.30747101  1.0
  O  O95  1  0.88413105  0.11343468  0.30747101  1.0
  O  O96  1  0.23467198  0.19578368  0.76059485  1.0
  O  O97  1  0.80421632  0.03888830  0.76059485  1.0
  O  O98  1  0.96111170  0.76532802  0.76059485  1.0
  O  O99  1  0.76532802  0.80421632  0.23940515  1.0
  O  O100  1  0.19578368  0.96111170  0.23940515  1.0
  O  O101  1  0.03888830  0.23467198  0.23940515  1.0
  O  O102  1  0.21822967  0.22930914  0.53656291  1.0
  O  O103  1  0.77069086  0.98892053  0.53656291  1.0
  O  O104  1  0.01107947  0.78177033  0.53656291  1.0
  O  O105  1  0.78177033  0.77069086  0.46343709  1.0
  O  O106  1  0.22930914  0.01107947  0.46343709  1.0
  O  O107  1  0.98892053  0.21822967  0.46343709  1.0
  O  O108  1  0.32474503  0.89483759  0.36480648  1.0
  O  O109  1  0.10516241  0.42990744  0.36480648  1.0
  O  O110  1  0.57009256  0.67525497  0.36480648  1.0
  O  O111  1  0.67525497  0.10516241  0.63519352  1.0
  O  O112  1  0.89483759  0.57009256  0.63519352  1.0
  O  O113  1  0.42990744  0.32474503  0.63519352  1.0
  O  O114  1  0.08668081  0.62448282  0.25453657  1.0
  O  O115  1  0.37551718  0.46219799  0.25453657  1.0
  O  O116  1  0.53780201  0.91331919  0.25453657  1.0
  O  O117  1  0.91331919  0.37551718  0.74546343  1.0
  O  O118  1  0.62448282  0.53780201  0.74546343  1.0
  O  O119  1  0.46219799  0.08668081  0.74546343  1.0
  O  O120  1  0.89042388  0.30852189  0.27678352  1.0
  O  O121  1  0.69147811  0.58190199  0.27678352  1.0
  O  O122  1  0.41809801  0.10957612  0.27678352  1.0
  O  O123  1  0.10957612  0.69147811  0.72321648  1.0
  O  O124  1  0.30852189  0.41809801  0.72321648  1.0
  O  O125  1  0.58190199  0.89042388  0.72321648  1.0
  O  O126  1  0.86750552  0.56038405  0.25216202  1.0
  O  O127  1  0.43961595  0.30712147  0.25216202  1.0
  O  O128  1  0.69287853  0.13249448  0.25216202  1.0
  O  O129  1  0.13249448  0.43961595  0.74783798  1.0
  O  O130  1  0.56038405  0.69287853  0.74783798  1.0
  O  O131  1  0.30712147  0.86750552  0.74783798  1.0
  O  O132  1  0.90106763  0.44071132  0.17966372  1.0
  O  O133  1  0.55928868  0.46035631  0.17966372  1.0
  O  O134  1  0.53964369  0.09893237  0.17966372  1.0
  O  O135  1  0.09893237  0.55928868  0.82033628  1.0
  O  O136  1  0.44071132  0.53964369  0.82033628  1.0
  O  O137  1  0.46035631  0.90106763  0.82033628  1.0
  O  O138  1  0.92575819  0.43958640  0.41414316  1.0
  O  O139  1  0.56041360  0.48617179  0.41414316  1.0
  O  O140  1  0.51382821  0.07424181  0.41414316  1.0
  O  O141  1  0.07424181  0.56041360  0.58585684  1.0
  O  O142  1  0.43958640  0.51382821  0.58585684  1.0
  O  O143  1  0.48617179  0.92575819  0.58585684  1.0
  O  O144  1  0.90868152  0.55068042  0.02911425  1.0
  O  O145  1  0.44931958  0.35800110  0.02911425  1.0
  O  O146  1  0.64199890  0.09131848  0.02911425  1.0
  O  O147  1  0.09131848  0.44931958  0.97088575  1.0
  O  O148  1  0.55068042  0.64199890  0.97088575  1.0
  O  O149  1  0.35800110  0.90868152  0.97088575  1.0
  O  O150  1  0.13580615  0.68951124  0.04014629  1.0
  O  O151  1  0.31048876  0.44629491  0.04014629  1.0
  O  O152  1  0.55370509  0.86419385  0.04014629  1.0
  O  O153  1  0.86419385  0.31048876  0.95985371  1.0
  O  O154  1  0.68951124  0.55370509  0.95985371  1.0
  O  O155  1  0.44629491  0.13580615  0.95985371  1.0
  O  O156  1  0.29430927  0.73856193  0.39217380  1.0
  O  O157  1  0.26143807  0.55574734  0.39217380  1.0
  O  O158  1  0.44425266  0.70569073  0.39217380  1.0
  O  O159  1  0.70569073  0.26143807  0.60782620  1.0
  O  O160  1  0.73856193  0.44425266  0.60782620  1.0
  O  O161  1  0.55574734  0.29430927  0.60782620  1.0
  O  O162  1  0.13077003  0.26543378  0.92472986  1.0
  O  O163  1  0.73456622  0.86533625  0.92472986  1.0
  O  O164  1  0.13466375  0.86922997  0.92472986  1.0
  O  O165  1  0.86922997  0.73456622  0.07527014  1.0
  O  O166  1  0.26543378  0.13466375  0.07527014  1.0
  O  O167  1  0.86533625  0.13077003  0.07527014  1.0
  O  O168  1  0.99106666  0.22966151  0.80856223  1.0
  O  O169  1  0.77033849  0.76140515  0.80856223  1.0
  O  O170  1  0.23859485  0.00893334  0.80856223  1.0
  O  O171  1  0.00893334  0.77033849  0.19143777  1.0
  O  O172  1  0.22966151  0.23859485  0.19143777  1.0
  O  O173  1  0.76140515  0.99106666  0.19143777  1.0
  O  O174  1  0.17690227  0.77448994  0.44648502  1.0
  O  O175  1  0.22551006  0.40241233  0.44648502  1.0
  O  O176  1  0.59758767  0.82309773  0.44648502  1.0
  O  O177  1  0.82309773  0.22551006  0.55351498  1.0
  O  O178  1  0.77448994  0.59758767  0.55351498  1.0
  O  O179  1  0.40241233  0.17690227  0.55351498  1.0
