# generated using pymatgen
data_Ag3Sb4F24
_symmetry_space_group_name_H-M   'P 1'
_cell_length_a   12.68708000
_cell_length_b   12.68708000
_cell_length_c   12.68708000
_cell_angle_alpha   90.00000000
_cell_angle_beta   90.00000000
_cell_angle_gamma   90.00000000
_symmetry_Int_Tables_number   1
_chemical_formula_structural   Ag3Sb4F24
_chemical_formula_sum   'Ag12 Sb16 F96'
_cell_volume   2042.13775734
_cell_formula_units_Z   4
loop_
 _symmetry_equiv_pos_site_id
 _symmetry_equiv_pos_as_xyz
  1  'x, y, z'
loop_
 _atom_site_type_symbol
 _atom_site_label
 _atom_site_symmetry_multiplicity
 _atom_site_fract_x
 _atom_site_fract_y
 _atom_site_fract_z
 _atom_site_occupancy
  Ag  Ag0  1  0.12500000  0.00000000  0.75000000  1.0
  Ag  Ag1  1  0.87500000  0.50000000  0.75000000  1.0
  Ag  Ag2  1  0.50000000  0.25000000  0.62500000  1.0
  Ag  Ag3  1  0.00000000  0.25000000  0.37500000  1.0
  Ag  Ag4  1  0.75000000  0.12500000  0.00000000  1.0
  Ag  Ag5  1  0.25000000  0.37500000  0.00000000  1.0
  Ag  Ag6  1  0.62500000  0.50000000  0.25000000  1.0
  Ag  Ag7  1  0.37500000  0.00000000  0.25000000  1.0
  Ag  Ag8  1  0.00000000  0.75000000  0.12500000  1.0
  Ag  Ag9  1  0.50000000  0.75000000  0.87500000  1.0
  Ag  Ag10  1  0.25000000  0.62500000  0.50000000  1.0
  Ag  Ag11  1  0.75000000  0.87500000  0.50000000  1.0
  Sb  Sb12  1  0.43840750  0.06159250  0.93840750  1.0
  Sb  Sb13  1  0.43840750  0.93840750  0.56159250  1.0
  Sb  Sb14  1  0.06159250  0.06159250  0.06159250  1.0
  Sb  Sb15  1  0.06159250  0.93840750  0.43840750  1.0
  Sb  Sb16  1  0.18840750  0.68840750  0.81159250  1.0
  Sb  Sb17  1  0.18840750  0.31159250  0.68840750  1.0
  Sb  Sb18  1  0.31159250  0.31159250  0.31159250  1.0
  Sb  Sb19  1  0.81159250  0.18840750  0.68840750  1.0
  Sb  Sb20  1  0.93840750  0.56159250  0.43840750  1.0
  Sb  Sb21  1  0.93840750  0.43840750  0.06159250  1.0
  Sb  Sb22  1  0.56159250  0.56159250  0.56159250  1.0
  Sb  Sb23  1  0.56159250  0.43840750  0.93840750  1.0
  Sb  Sb24  1  0.68840750  0.18840750  0.31159250  1.0
  Sb  Sb25  1  0.68840750  0.81159250  0.18840750  1.0
  Sb  Sb26  1  0.81159250  0.81159250  0.81159250  1.0
  Sb  Sb27  1  0.31159250  0.68840750  0.18840750  1.0
  F  F28  1  0.56732850  0.10255650  0.00988450  1.0
  F  F29  1  0.06732850  0.39744350  0.99011550  1.0
  F  F30  1  0.43267150  0.60255650  0.49011550  1.0
  F  F31  1  0.43267150  0.39744350  0.00988450  1.0
  F  F32  1  0.81732850  0.25988450  0.35255650  1.0
  F  F33  1  0.31732850  0.24011550  0.64744350  1.0
  F  F34  1  0.18267150  0.24011550  0.35255650  1.0
  F  F35  1  0.18267150  0.75988450  0.14744350  1.0
  F  F36  1  0.10255650  0.00988450  0.56732850  1.0
  F  F37  1  0.89744350  0.49011550  0.56732850  1.0
  F  F38  1  0.10255650  0.99011550  0.93267150  1.0
  F  F39  1  0.39744350  0.00988450  0.43267150  1.0
  F  F40  1  0.25988450  0.35255650  0.81732850  1.0
  F  F41  1  0.74011550  0.14744350  0.81732850  1.0
  F  F42  1  0.24011550  0.35255650  0.18267150  1.0
  F  F43  1  0.25988450  0.64744350  0.68267150  1.0
  F  F44  1  0.50988450  0.06732850  0.60255650  1.0
  F  F45  1  0.99011550  0.06732850  0.39744350  1.0
  F  F46  1  0.49011550  0.43267150  0.60255650  1.0
  F  F47  1  0.50988450  0.93267150  0.89744350  1.0
  F  F48  1  0.85255650  0.31732850  0.75988450  1.0
  F  F49  1  0.64744350  0.31732850  0.24011550  1.0
  F  F50  1  0.85255650  0.68267150  0.74011550  1.0
  F  F51  1  0.14744350  0.18267150  0.75988450  1.0
  F  F52  1  0.31496600  0.01380400  0.86776200  1.0
  F  F53  1  0.31496600  0.98619600  0.63223800  1.0
  F  F54  1  0.68503400  0.51380400  0.63223800  1.0
  F  F55  1  0.18503400  0.98619600  0.36776200  1.0
  F  F56  1  0.06496600  0.61776200  0.76380400  1.0
  F  F57  1  0.06496600  0.38223800  0.73619600  1.0
  F  F58  1  0.43503400  0.38223800  0.26380400  1.0
  F  F59  1  0.93503400  0.11776200  0.73619600  1.0
  F  F60  1  0.51380400  0.36776200  0.81496600  1.0
  F  F61  1  0.48619600  0.13223800  0.81496600  1.0
  F  F62  1  0.01380400  0.13223800  0.18503400  1.0
  F  F63  1  0.48619600  0.86776200  0.68503400  1.0
  F  F64  1  0.11776200  0.26380400  0.56496600  1.0
  F  F65  1  0.88223800  0.23619600  0.56496600  1.0
  F  F66  1  0.38223800  0.26380400  0.43503400  1.0
  F  F67  1  0.11776200  0.73619600  0.93503400  1.0
  F  F68  1  0.36776200  0.81496600  0.51380400  1.0
  F  F69  1  0.63223800  0.31496600  0.98619600  1.0
  F  F70  1  0.13223800  0.18503400  0.01380400  1.0
  F  F71  1  0.36776200  0.18503400  0.98619600  1.0
  F  F72  1  0.26380400  0.56496600  0.11776200  1.0
  F  F73  1  0.23619600  0.56496600  0.88223800  1.0
  F  F74  1  0.76380400  0.93503400  0.88223800  1.0
  F  F75  1  0.23619600  0.43503400  0.61776200  1.0
  F  F76  1  0.06732850  0.60255650  0.50988450  1.0
  F  F77  1  0.56732850  0.89744350  0.49011550  1.0
  F  F78  1  0.93267150  0.10255650  0.99011550  1.0
  F  F79  1  0.93267150  0.89744350  0.50988450  1.0
  F  F80  1  0.31732850  0.75988450  0.85255650  1.0
  F  F81  1  0.81732850  0.74011550  0.14744350  1.0
  F  F82  1  0.68267150  0.74011550  0.85255650  1.0
  F  F83  1  0.68267150  0.25988450  0.64744350  1.0
  F  F84  1  0.60255650  0.50988450  0.06732850  1.0
  F  F85  1  0.39744350  0.99011550  0.06732850  1.0
  F  F86  1  0.60255650  0.49011550  0.43267150  1.0
  F  F87  1  0.89744350  0.50988450  0.93267150  1.0
  F  F88  1  0.75988450  0.85255650  0.31732850  1.0
  F  F89  1  0.24011550  0.64744350  0.31732850  1.0
  F  F90  1  0.74011550  0.85255650  0.68267150  1.0
  F  F91  1  0.75988450  0.14744350  0.18267150  1.0
  F  F92  1  0.00988450  0.56732850  0.10255650  1.0
  F  F93  1  0.49011550  0.56732850  0.89744350  1.0
  F  F94  1  0.99011550  0.93267150  0.10255650  1.0
  F  F95  1  0.00988450  0.43267150  0.39744350  1.0
  F  F96  1  0.35255650  0.81732850  0.25988450  1.0
  F  F97  1  0.14744350  0.81732850  0.74011550  1.0
  F  F98  1  0.35255650  0.18267150  0.24011550  1.0
  F  F99  1  0.64744350  0.68267150  0.25988450  1.0
  F  F100  1  0.81496600  0.51380400  0.36776200  1.0
  F  F101  1  0.81496600  0.48619600  0.13223800  1.0
  F  F102  1  0.18503400  0.01380400  0.13223800  1.0
  F  F103  1  0.68503400  0.48619600  0.86776200  1.0
  F  F104  1  0.56496600  0.11776200  0.26380400  1.0
  F  F105  1  0.56496600  0.88223800  0.23619600  1.0
  F  F106  1  0.93503400  0.88223800  0.76380400  1.0
  F  F107  1  0.43503400  0.61776200  0.23619600  1.0
  F  F108  1  0.01380400  0.86776200  0.31496600  1.0
  F  F109  1  0.98619600  0.63223800  0.31496600  1.0
  F  F110  1  0.51380400  0.63223800  0.68503400  1.0
  F  F111  1  0.98619600  0.36776200  0.18503400  1.0
  F  F112  1  0.61776200  0.76380400  0.06496600  1.0
  F  F113  1  0.38223800  0.73619600  0.06496600  1.0
  F  F114  1  0.88223800  0.76380400  0.93503400  1.0
  F  F115  1  0.61776200  0.23619600  0.43503400  1.0
  F  F116  1  0.86776200  0.31496600  0.01380400  1.0
  F  F117  1  0.13223800  0.81496600  0.48619600  1.0
  F  F118  1  0.63223800  0.68503400  0.51380400  1.0
  F  F119  1  0.86776200  0.68503400  0.48619600  1.0
  F  F120  1  0.76380400  0.06496600  0.61776200  1.0
  F  F121  1  0.73619600  0.06496600  0.38223800  1.0
  F  F122  1  0.26380400  0.43503400  0.38223800  1.0
  F  F123  1  0.73619600  0.93503400  0.11776200  1.0
