# generated using pymatgen
data_Ag3Bi8S13
_symmetry_space_group_name_H-M   'P 1'
_cell_length_a   13.20083801
_cell_length_b   4.17117000
_cell_length_c   21.84405501
_cell_angle_alpha   90.00000000
_cell_angle_beta   93.33456599
_cell_angle_gamma   90.00000000
_symmetry_Int_Tables_number   1
_chemical_formula_structural   Ag3Bi8S13
_chemical_formula_sum   'Ag6 Bi16 S26'
_cell_volume   1200.76143053
_cell_formula_units_Z   2
loop_
 _symmetry_equiv_pos_site_id
 _symmetry_equiv_pos_as_xyz
  1  'x, y, z'
loop_
 _atom_site_type_symbol
 _atom_site_label
 _atom_site_symmetry_multiplicity
 _atom_site_fract_x
 _atom_site_fract_y
 _atom_site_fract_z
 _atom_site_occupancy
  Ag  Ag0  1  0.58182800  0.00000000  0.37544100  1.0
  Ag  Ag1  1  0.91817200  0.50000000  0.62455900  1.0
  Ag  Ag2  1  0.00000000  0.00000000  0.00000000  1.0
  Ag  Ag3  1  0.08182800  0.50000000  0.37544100  1.0
  Ag  Ag4  1  0.41817200  0.00000000  0.62455900  1.0
  Ag  Ag5  1  0.50000000  0.50000000  0.00000000  1.0
  Bi  Bi6  1  0.80104400  0.50000000  0.29620400  1.0
  Bi  Bi7  1  0.69895600  0.00000000  0.70379600  1.0
  Bi  Bi8  1  0.64051600  0.50000000  0.54168100  1.0
  Bi  Bi9  1  0.85948400  0.00000000  0.45831900  1.0
  Bi  Bi10  1  0.52277500  0.50000000  0.21351000  1.0
  Bi  Bi11  1  0.97722500  0.00000000  0.78649000  1.0
  Bi  Bi12  1  0.74034400  0.00000000  0.08092900  1.0
  Bi  Bi13  1  0.75965600  0.50000000  0.91907100  1.0
  Bi  Bi14  1  0.30104400  0.00000000  0.29620400  1.0
  Bi  Bi15  1  0.19895600  0.50000000  0.70379600  1.0
  Bi  Bi16  1  0.14051600  0.00000000  0.54168100  1.0
  Bi  Bi17  1  0.35948400  0.50000000  0.45831900  1.0
  Bi  Bi18  1  0.02277500  0.00000000  0.21351000  1.0
  Bi  Bi19  1  0.47722500  0.50000000  0.78649000  1.0
  Bi  Bi20  1  0.24034400  0.50000000  0.08092900  1.0
  Bi  Bi21  1  0.25965600  0.00000000  0.91907100  1.0
  S  S22  1  0.72260100  0.50000000  0.42301300  1.0
  S  S23  1  0.77739900  0.00000000  0.57698700  1.0
  S  S24  1  0.85545400  0.50000000  0.02780300  1.0
  S  S25  1  0.64454600  0.00000000  0.97219700  1.0
  S  S26  1  0.88453500  0.50000000  0.18610200  1.0
  S  S27  1  0.61546500  0.00000000  0.81389800  1.0
  S  S28  1  0.56421500  0.50000000  0.65822300  1.0
  S  S29  1  0.93578500  0.00000000  0.34177700  1.0
  S  S30  1  0.65850700  0.00000000  0.26493300  1.0
  S  S31  1  0.84149300  0.50000000  0.73506700  1.0
  S  S32  1  0.00000000  0.50000000  0.50000000  1.0
  S  S33  1  0.59849200  0.50000000  0.10306300  1.0
  S  S34  1  0.90150800  0.00000000  0.89693700  1.0
  S  S35  1  0.22260100  0.00000000  0.42301300  1.0
  S  S36  1  0.27739900  0.50000000  0.57698700  1.0
  S  S37  1  0.35545400  0.00000000  0.02780300  1.0
  S  S38  1  0.14454600  0.50000000  0.97219700  1.0
  S  S39  1  0.38453500  0.00000000  0.18610200  1.0
  S  S40  1  0.11546500  0.50000000  0.81389800  1.0
  S  S41  1  0.06421500  0.00000000  0.65822300  1.0
  S  S42  1  0.43578500  0.50000000  0.34177700  1.0
  S  S43  1  0.15850700  0.50000000  0.26493300  1.0
  S  S44  1  0.34149300  0.00000000  0.73506700  1.0
  S  S45  1  0.50000000  0.00000000  0.50000000  1.0
  S  S46  1  0.09849200  0.00000000  0.10306300  1.0
  S  S47  1  0.40150800  0.50000000  0.89693700  1.0
