# generated using pymatgen
data_AcHgRh2
_symmetry_space_group_name_H-M   'P 1'
_cell_length_a   6.90633306
_cell_length_b   6.90633306
_cell_length_c   6.90633306
_cell_angle_alpha   90.00000000
_cell_angle_beta   90.00000000
_cell_angle_gamma   90.00000000
_symmetry_Int_Tables_number   1
_chemical_formula_structural   AcHgRh2
_chemical_formula_sum   'Ac4 Hg4 Rh8'
_cell_volume   329.41438144
_cell_formula_units_Z   4
loop_
 _symmetry_equiv_pos_site_id
 _symmetry_equiv_pos_as_xyz
  1  'x, y, z'
loop_
 _atom_site_type_symbol
 _atom_site_label
 _atom_site_symmetry_multiplicity
 _atom_site_fract_x
 _atom_site_fract_y
 _atom_site_fract_z
 _atom_site_occupancy
  Ac  Ac0  1  0.50000000  0.00000000  0.00000000  1.0
  Ac  Ac1  1  0.50000000  0.50000000  0.50000000  1.0
  Ac  Ac2  1  0.00000000  0.00000000  0.50000000  1.0
  Ac  Ac3  1  0.00000000  0.50000000  0.00000000  1.0
  Hg  Hg4  1  0.00000000  0.00000000  0.00000000  1.0
  Hg  Hg5  1  0.00000000  0.50000000  0.50000000  1.0
  Hg  Hg6  1  0.50000000  0.00000000  0.50000000  1.0
  Hg  Hg7  1  0.50000000  0.50000000  0.00000000  1.0
  Rh  Rh8  1  0.25000000  0.75000000  0.75000000  1.0
  Rh  Rh9  1  0.25000000  0.25000000  0.75000000  1.0
  Rh  Rh10  1  0.25000000  0.25000000  0.25000000  1.0
  Rh  Rh11  1  0.25000000  0.75000000  0.25000000  1.0
  Rh  Rh12  1  0.75000000  0.75000000  0.25000000  1.0
  Rh  Rh13  1  0.75000000  0.25000000  0.25000000  1.0
  Rh  Rh14  1  0.75000000  0.25000000  0.75000000  1.0
  Rh  Rh15  1  0.75000000  0.75000000  0.75000000  1.0
