# generated using pymatgen
data_Ag2S
_symmetry_space_group_name_H-M   'P 1'
_cell_length_a   4.55434870
_cell_length_b   7.02112400
_cell_length_c   9.34360412
_cell_angle_alpha   90.00000000
_cell_angle_beta   117.38776916
_cell_angle_gamma   90.00000000
_symmetry_Int_Tables_number   1
_chemical_formula_structural   Ag2S
_chemical_formula_sum   'Ag8 S4'
_cell_volume   265.28827827
_cell_formula_units_Z   4
loop_
 _symmetry_equiv_pos_site_id
 _symmetry_equiv_pos_as_xyz
  1  'x, y, z'
loop_
 _atom_site_type_symbol
 _atom_site_label
 _atom_site_symmetry_multiplicity
 _atom_site_fract_x
 _atom_site_fract_y
 _atom_site_fract_z
 _atom_site_occupancy
  Ag  Ag0  1  0.97546700  0.03973400  0.73120500  1.0
  Ag  Ag1  1  0.97546700  0.46026600  0.23120500  1.0
  Ag  Ag2  1  0.02453300  0.96026600  0.26879500  1.0
  Ag  Ag3  1  0.02453300  0.53973400  0.76879500  1.0
  Ag  Ag4  1  0.30292300  0.32372700  0.57126300  1.0
  Ag  Ag5  1  0.30292300  0.17627300  0.07126300  1.0
  Ag  Ag6  1  0.69707700  0.67627300  0.42873700  1.0
  Ag  Ag7  1  0.69707700  0.82372700  0.92873700  1.0
  S  S8  1  0.76862900  0.28408200  0.84507200  1.0
  S  S9  1  0.76862900  0.21591800  0.34507200  1.0
  S  S10  1  0.23137100  0.71591800  0.15492800  1.0
  S  S11  1  0.23137100  0.78408200  0.65492800  1.0
