# generated using pymatgen
data_Ag(Mo3Se4)2
_symmetry_space_group_name_H-M   'P 1'
_cell_length_a   9.80402804
_cell_length_b   9.80402804
_cell_length_c   11.38041161
_cell_angle_alpha   90.00000000
_cell_angle_beta   90.00000000
_cell_angle_gamma   120.00000000
_symmetry_Int_Tables_number   1
_chemical_formula_structural   Ag(Mo3Se4)2
_chemical_formula_sum   'Ag3 Mo18 Se24'
_cell_volume   947.32214810
_cell_formula_units_Z   3
loop_
 _symmetry_equiv_pos_site_id
 _symmetry_equiv_pos_as_xyz
  1  'x, y, z'
loop_
 _atom_site_type_symbol
 _atom_site_label
 _atom_site_symmetry_multiplicity
 _atom_site_fract_x
 _atom_site_fract_y
 _atom_site_fract_z
 _atom_site_occupancy
  Ag  Ag0  1  0.00000000  0.00000000  0.00000000  1.0
  Ag  Ag1  1  0.66666667  0.33333333  0.33333333  1.0
  Ag  Ag2  1  0.33333333  0.66666667  0.66666667  1.0
  Mo  Mo3  1  0.16767500  0.15203100  0.60178800  1.0
  Mo  Mo4  1  0.84796900  0.01564400  0.60178800  1.0
  Mo  Mo5  1  0.98435600  0.83232500  0.60178800  1.0
  Mo  Mo6  1  0.83232500  0.84796900  0.39821200  1.0
  Mo  Mo7  1  0.15203100  0.98435600  0.39821200  1.0
  Mo  Mo8  1  0.01564400  0.16767500  0.39821200  1.0
  Mo  Mo9  1  0.83434167  0.48536433  0.93512133  1.0
  Mo  Mo10  1  0.51463567  0.34897733  0.93512133  1.0
  Mo  Mo11  1  0.65102267  0.16565833  0.93512133  1.0
  Mo  Mo12  1  0.49899167  0.18130233  0.73154533  1.0
  Mo  Mo13  1  0.81869767  0.31768933  0.73154533  1.0
  Mo  Mo14  1  0.68231067  0.50100833  0.73154533  1.0
  Mo  Mo15  1  0.50100833  0.81869767  0.26845467  1.0
  Mo  Mo16  1  0.18130233  0.68231067  0.26845467  1.0
  Mo  Mo17  1  0.31768933  0.49899167  0.26845467  1.0
  Mo  Mo18  1  0.16565833  0.51463567  0.06487867  1.0
  Mo  Mo19  1  0.48536433  0.65102267  0.06487867  1.0
  Mo  Mo20  1  0.34897733  0.83434167  0.06487867  1.0
  Se  Se21  1  0.00000000  0.00000000  0.77783000  1.0
  Se  Se22  1  0.00000000  0.00000000  0.22217000  1.0
  Se  Se23  1  0.67892067  0.71194633  0.58449833  1.0
  Se  Se24  1  0.28805367  0.96697433  0.58449833  1.0
  Se  Se25  1  0.03302567  0.32107933  0.58449833  1.0
  Se  Se26  1  0.32107933  0.28805367  0.41550167  1.0
  Se  Se27  1  0.71194633  0.03302567  0.41550167  1.0
  Se  Se28  1  0.96697433  0.67892067  0.41550167  1.0
  Se  Se29  1  0.66666667  0.33333333  0.11116333  1.0
  Se  Se30  1  0.66666667  0.33333333  0.55550333  1.0
  Se  Se31  1  0.34558733  0.04527967  0.91783167  1.0
  Se  Se32  1  0.95472033  0.30030767  0.91783167  1.0
  Se  Se33  1  0.69969233  0.65441267  0.91783167  1.0
  Se  Se34  1  0.98774600  0.62138700  0.74883500  1.0
  Se  Se35  1  0.37861300  0.36635900  0.74883500  1.0
  Se  Se36  1  0.63364100  0.01225400  0.74883500  1.0
  Se  Se37  1  0.33333333  0.66666667  0.44449667  1.0
  Se  Se38  1  0.33333333  0.66666667  0.88883667  1.0
  Se  Se39  1  0.01225400  0.37861300  0.25116500  1.0
  Se  Se40  1  0.62138700  0.63364100  0.25116500  1.0
  Se  Se41  1  0.36635900  0.98774600  0.25116500  1.0
  Se  Se42  1  0.65441267  0.95472033  0.08216833  1.0
  Se  Se43  1  0.04527967  0.69969233  0.08216833  1.0
  Se  Se44  1  0.30030767  0.34558733  0.08216833  1.0
