# generated using pymatgen
data_Ag2P2H2O7
_symmetry_space_group_name_H-M   'P 1'
_cell_length_a   7.06726780
_cell_length_b   12.24731751
_cell_length_c   27.49797701
_cell_angle_alpha   90.00000000
_cell_angle_beta   90.00000000
_cell_angle_gamma   90.00000000
_symmetry_Int_Tables_number   1
_chemical_formula_structural   Ag2P2H2O7
_chemical_formula_sum   'Ag32 P32 H32 O112'
_cell_volume   2380.08939851
_cell_formula_units_Z   16
loop_
 _symmetry_equiv_pos_site_id
 _symmetry_equiv_pos_as_xyz
  1  'x, y, z'
loop_
 _atom_site_type_symbol
 _atom_site_label
 _atom_site_symmetry_multiplicity
 _atom_site_fract_x
 _atom_site_fract_y
 _atom_site_fract_z
 _atom_site_occupancy
  Ag  Ag0  1  0.35157118  0.60874392  0.54865180  1.0
  Ag  Ag1  1  0.14842882  0.89125608  0.54865180  1.0
  Ag  Ag2  1  0.14842882  0.60874392  0.95134820  1.0
  Ag  Ag3  1  0.35157118  0.89125608  0.95134820  1.0
  Ag  Ag4  1  0.89842882  0.64125608  0.70134820  1.0
  Ag  Ag5  1  0.60157118  0.85874392  0.70134820  1.0
  Ag  Ag6  1  0.60157118  0.64125608  0.79865180  1.0
  Ag  Ag7  1  0.89842882  0.85874392  0.79865180  1.0
  Ag  Ag8  1  0.35157118  0.10874392  0.04865180  1.0
  Ag  Ag9  1  0.14842882  0.39125608  0.04865180  1.0
  Ag  Ag10  1  0.14842882  0.10874392  0.45134820  1.0
  Ag  Ag11  1  0.35157118  0.39125608  0.45134820  1.0
  Ag  Ag12  1  0.89842882  0.14125608  0.20134820  1.0
  Ag  Ag13  1  0.60157118  0.35874392  0.20134820  1.0
  Ag  Ag14  1  0.60157118  0.14125608  0.29865180  1.0
  Ag  Ag15  1  0.89842882  0.35874392  0.29865180  1.0
  Ag  Ag16  1  0.85157118  0.60874392  0.04865180  1.0
  Ag  Ag17  1  0.64842882  0.89125608  0.04865180  1.0
  Ag  Ag18  1  0.64842882  0.60874392  0.45134820  1.0
  Ag  Ag19  1  0.85157118  0.89125608  0.45134820  1.0
  Ag  Ag20  1  0.39842882  0.64125608  0.20134820  1.0
  Ag  Ag21  1  0.10157118  0.85874392  0.20134820  1.0
  Ag  Ag22  1  0.10157118  0.64125608  0.29865180  1.0
  Ag  Ag23  1  0.39842882  0.85874392  0.29865180  1.0
  Ag  Ag24  1  0.85157118  0.10874392  0.54865180  1.0
  Ag  Ag25  1  0.64842882  0.39125608  0.54865180  1.0
  Ag  Ag26  1  0.64842882  0.10874392  0.95134820  1.0
  Ag  Ag27  1  0.85157118  0.39125608  0.95134820  1.0
  Ag  Ag28  1  0.39842882  0.14125608  0.70134820  1.0
  Ag  Ag29  1  0.10157118  0.35874392  0.70134820  1.0
  Ag  Ag30  1  0.10157118  0.14125608  0.79865180  1.0
  Ag  Ag31  1  0.39842882  0.35874392  0.79865180  1.0
  P  P32  1  0.65729669  0.85580313  0.57260957  1.0
  P  P33  1  0.84270331  0.64419687  0.57260957  1.0
  P  P34  1  0.84270331  0.85580313  0.92739043  1.0
  P  P35  1  0.65729669  0.64419687  0.92739043  1.0
  P  P36  1  0.09270331  0.89419687  0.67739043  1.0
  P  P37  1  0.40729669  0.60580313  0.67739043  1.0
  P  P38  1  0.40729669  0.89419687  0.82260957  1.0
  P  P39  1  0.09270331  0.60580313  0.82260957  1.0
  P  P40  1  0.65729669  0.35580313  0.07260957  1.0
  P  P41  1  0.84270331  0.14419687  0.07260957  1.0
  P  P42  1  0.84270331  0.35580313  0.42739043  1.0
  P  P43  1  0.65729669  0.14419687  0.42739043  1.0
  P  P44  1  0.09270331  0.39419687  0.17739043  1.0
  P  P45  1  0.40729669  0.10580313  0.17739043  1.0
  P  P46  1  0.40729669  0.39419687  0.32260957  1.0
  P  P47  1  0.09270331  0.10580313  0.32260957  1.0
  P  P48  1  0.15729669  0.85580313  0.07260957  1.0
  P  P49  1  0.34270331  0.64419687  0.07260957  1.0
  P  P50  1  0.34270331  0.85580313  0.42739043  1.0
  P  P51  1  0.15729669  0.64419687  0.42739043  1.0
  P  P52  1  0.59270331  0.89419687  0.17739043  1.0
  P  P53  1  0.90729669  0.60580313  0.17739043  1.0
  P  P54  1  0.90729669  0.89419687  0.32260957  1.0
  P  P55  1  0.59270331  0.60580313  0.32260957  1.0
  P  P56  1  0.15729669  0.35580313  0.57260957  1.0
  P  P57  1  0.34270331  0.14419687  0.57260957  1.0
  P  P58  1  0.34270331  0.35580313  0.92739043  1.0
  P  P59  1  0.15729669  0.14419687  0.92739043  1.0
  P  P60  1  0.59270331  0.39419687  0.67739043  1.0
  P  P61  1  0.90729669  0.10580313  0.67739043  1.0
  P  P62  1  0.90729669  0.39419687  0.82260957  1.0
  P  P63  1  0.59270331  0.10580313  0.82260957  1.0
  H  H64  1  0.25000000  0.75000000  0.63490772  1.0
  H  H65  1  0.25000000  0.75000000  0.86509228  1.0
  H  H66  1  0.50000000  0.00000000  0.61509228  1.0
  H  H67  1  0.00000000  0.00000000  0.88490772  1.0
  H  H68  1  0.25000000  0.93184851  0.75000000  1.0
  H  H69  1  0.25000000  0.56815149  0.75000000  1.0
  H  H70  1  0.00000000  0.81815149  0.00000000  1.0
  H  H71  1  0.50000000  0.68184851  0.00000000  1.0
  H  H72  1  0.25000000  0.25000000  0.13490772  1.0
  H  H73  1  0.25000000  0.25000000  0.36509228  1.0
  H  H74  1  0.50000000  0.50000000  0.11509228  1.0
  H  H75  1  0.00000000  0.50000000  0.38490772  1.0
  H  H76  1  0.25000000  0.43184851  0.25000000  1.0
  H  H77  1  0.25000000  0.06815149  0.25000000  1.0
  H  H78  1  0.00000000  0.31815149  0.50000000  1.0
  H  H79  1  0.50000000  0.18184851  0.50000000  1.0
  H  H80  1  0.75000000  0.75000000  0.13490772  1.0
  H  H81  1  0.75000000  0.75000000  0.36509228  1.0
  H  H82  1  0.00000000  0.00000000  0.11509228  1.0
  H  H83  1  0.50000000  0.00000000  0.38490772  1.0
  H  H84  1  0.75000000  0.93184851  0.25000000  1.0
  H  H85  1  0.75000000  0.56815149  0.25000000  1.0
  H  H86  1  0.50000000  0.81815149  0.50000000  1.0
  H  H87  1  0.00000000  0.68184851  0.50000000  1.0
  H  H88  1  0.75000000  0.25000000  0.63490772  1.0
  H  H89  1  0.75000000  0.25000000  0.86509228  1.0
  H  H90  1  0.00000000  0.50000000  0.61509228  1.0
  H  H91  1  0.50000000  0.50000000  0.88490772  1.0
  H  H92  1  0.75000000  0.43184851  0.75000000  1.0
  H  H93  1  0.75000000  0.06815149  0.75000000  1.0
  H  H94  1  0.50000000  0.31815149  0.00000000  1.0
  H  H95  1  0.00000000  0.18184851  0.00000000  1.0
  O  O96  1  0.75000000  0.75000000  0.59700592  1.0
  O  O97  1  0.75000000  0.75000000  0.90299408  1.0
  O  O98  1  0.00000000  0.00000000  0.65299408  1.0
  O  O99  1  0.50000000  0.00000000  0.84700592  1.0
  O  O100  1  0.34615758  0.67011678  0.63268625  1.0
  O  O101  1  0.15384242  0.82988322  0.63268625  1.0
  O  O102  1  0.15384242  0.67011678  0.86731375  1.0
  O  O103  1  0.34615758  0.82988322  0.86731375  1.0
  O  O104  1  0.90384242  0.57988322  0.61731375  1.0
  O  O105  1  0.59615758  0.92011678  0.61731375  1.0
  O  O106  1  0.59615758  0.57988322  0.88268625  1.0
  O  O107  1  0.90384242  0.92011678  0.88268625  1.0
  O  O108  1  0.01602292  0.81752027  0.95672951  1.0
  O  O109  1  0.48397708  0.68247973  0.95672951  1.0
  O  O110  1  0.48397708  0.81752027  0.54327049  1.0
  O  O111  1  0.01602292  0.68247973  0.54327049  1.0
  O  O112  1  0.23397708  0.93247973  0.79327049  1.0
  O  O113  1  0.26602292  0.56752027  0.79327049  1.0
  O  O114  1  0.26602292  0.93247973  0.70672951  1.0
  O  O115  1  0.23397708  0.56752027  0.70672951  1.0
  O  O116  1  0.94827589  0.66095244  0.79082836  1.0
  O  O117  1  0.55172411  0.83904756  0.79082836  1.0
  O  O118  1  0.55172411  0.66095244  0.70917164  1.0
  O  O119  1  0.94827589  0.83904756  0.70917164  1.0
  O  O120  1  0.80172411  0.58904756  0.95917164  1.0
  O  O121  1  0.69827589  0.91095244  0.95917164  1.0
  O  O122  1  0.69827589  0.58904756  0.54082836  1.0
  O  O123  1  0.80172411  0.91095244  0.54082836  1.0
  O  O124  1  0.75000000  0.25000000  0.09700592  1.0
  O  O125  1  0.75000000  0.25000000  0.40299408  1.0
  O  O126  1  0.00000000  0.50000000  0.15299408  1.0
  O  O127  1  0.50000000  0.50000000  0.34700592  1.0
  O  O128  1  0.34615758  0.17011678  0.13268625  1.0
  O  O129  1  0.15384242  0.32988322  0.13268625  1.0
  O  O130  1  0.15384242  0.17011678  0.36731375  1.0
  O  O131  1  0.34615758  0.32988322  0.36731375  1.0
  O  O132  1  0.90384242  0.07988322  0.11731375  1.0
  O  O133  1  0.59615758  0.42011678  0.11731375  1.0
  O  O134  1  0.59615758  0.07988322  0.38268625  1.0
  O  O135  1  0.90384242  0.42011678  0.38268625  1.0
  O  O136  1  0.01602292  0.31752027  0.45672951  1.0
  O  O137  1  0.48397708  0.18247973  0.45672951  1.0
  O  O138  1  0.48397708  0.31752027  0.04327049  1.0
  O  O139  1  0.01602292  0.18247973  0.04327049  1.0
  O  O140  1  0.23397708  0.43247973  0.29327049  1.0
  O  O141  1  0.26602292  0.06752027  0.29327049  1.0
  O  O142  1  0.26602292  0.43247973  0.20672951  1.0
  O  O143  1  0.23397708  0.06752027  0.20672951  1.0
  O  O144  1  0.94827589  0.16095244  0.29082836  1.0
  O  O145  1  0.55172411  0.33904756  0.29082836  1.0
  O  O146  1  0.55172411  0.16095244  0.20917164  1.0
  O  O147  1  0.94827589  0.33904756  0.20917164  1.0
  O  O148  1  0.80172411  0.08904756  0.45917164  1.0
  O  O149  1  0.69827589  0.41095244  0.45917164  1.0
  O  O150  1  0.69827589  0.08904756  0.04082836  1.0
  O  O151  1  0.80172411  0.41095244  0.04082836  1.0
  O  O152  1  0.25000000  0.75000000  0.09700592  1.0
  O  O153  1  0.25000000  0.75000000  0.40299408  1.0
  O  O154  1  0.50000000  0.00000000  0.15299408  1.0
  O  O155  1  0.00000000  0.00000000  0.34700592  1.0
  O  O156  1  0.84615758  0.67011678  0.13268625  1.0
  O  O157  1  0.65384242  0.82988322  0.13268625  1.0
  O  O158  1  0.65384242  0.67011678  0.36731375  1.0
  O  O159  1  0.84615758  0.82988322  0.36731375  1.0
  O  O160  1  0.40384242  0.57988322  0.11731375  1.0
  O  O161  1  0.09615758  0.92011678  0.11731375  1.0
  O  O162  1  0.09615758  0.57988322  0.38268625  1.0
  O  O163  1  0.40384242  0.92011678  0.38268625  1.0
  O  O164  1  0.51602292  0.81752027  0.45672951  1.0
  O  O165  1  0.98397708  0.68247973  0.45672951  1.0
  O  O166  1  0.98397708  0.81752027  0.04327049  1.0
  O  O167  1  0.51602292  0.68247973  0.04327049  1.0
  O  O168  1  0.73397708  0.93247973  0.29327049  1.0
  O  O169  1  0.76602292  0.56752027  0.29327049  1.0
  O  O170  1  0.76602292  0.93247973  0.20672951  1.0
  O  O171  1  0.73397708  0.56752027  0.20672951  1.0
  O  O172  1  0.44827589  0.66095244  0.29082836  1.0
  O  O173  1  0.05172411  0.83904756  0.29082836  1.0
  O  O174  1  0.05172411  0.66095244  0.20917164  1.0
  O  O175  1  0.44827589  0.83904756  0.20917164  1.0
  O  O176  1  0.30172411  0.58904756  0.45917164  1.0
  O  O177  1  0.19827589  0.91095244  0.45917164  1.0
  O  O178  1  0.19827589  0.58904756  0.04082836  1.0
  O  O179  1  0.30172411  0.91095244  0.04082836  1.0
  O  O180  1  0.25000000  0.25000000  0.59700592  1.0
  O  O181  1  0.25000000  0.25000000  0.90299408  1.0
  O  O182  1  0.50000000  0.50000000  0.65299408  1.0
  O  O183  1  0.00000000  0.50000000  0.84700592  1.0
  O  O184  1  0.84615758  0.17011678  0.63268625  1.0
  O  O185  1  0.65384242  0.32988322  0.63268625  1.0
  O  O186  1  0.65384242  0.17011678  0.86731375  1.0
  O  O187  1  0.84615758  0.32988322  0.86731375  1.0
  O  O188  1  0.40384242  0.07988322  0.61731375  1.0
  O  O189  1  0.09615758  0.42011678  0.61731375  1.0
  O  O190  1  0.09615758  0.07988322  0.88268625  1.0
  O  O191  1  0.40384242  0.42011678  0.88268625  1.0
  O  O192  1  0.51602292  0.31752027  0.95672951  1.0
  O  O193  1  0.98397708  0.18247973  0.95672951  1.0
  O  O194  1  0.98397708  0.31752027  0.54327049  1.0
  O  O195  1  0.51602292  0.18247973  0.54327049  1.0
  O  O196  1  0.73397708  0.43247973  0.79327049  1.0
  O  O197  1  0.76602292  0.06752027  0.79327049  1.0
  O  O198  1  0.76602292  0.43247973  0.70672951  1.0
  O  O199  1  0.73397708  0.06752027  0.70672951  1.0
  O  O200  1  0.44827589  0.16095244  0.79082836  1.0
  O  O201  1  0.05172411  0.33904756  0.79082836  1.0
  O  O202  1  0.05172411  0.16095244  0.70917164  1.0
  O  O203  1  0.44827589  0.33904756  0.70917164  1.0
  O  O204  1  0.30172411  0.08904756  0.95917164  1.0
  O  O205  1  0.19827589  0.41095244  0.95917164  1.0
  O  O206  1  0.19827589  0.08904756  0.54082836  1.0
  O  O207  1  0.30172411  0.41095244  0.54082836  1.0
