# generated using pymatgen
data_Ag3AuSeS
_symmetry_space_group_name_H-M   'P 1'
_cell_length_a   10.00363600
_cell_length_b   10.00363600
_cell_length_c   10.00363600
_cell_angle_alpha   90.00000000
_cell_angle_beta   90.00000000
_cell_angle_gamma   90.00000000
_symmetry_Int_Tables_number   1
_chemical_formula_structural   Ag3AuSeS
_chemical_formula_sum   'Ag24 Au8 Se8 S8'
_cell_volume   1001.09119666
_cell_formula_units_Z   8
loop_
 _symmetry_equiv_pos_site_id
 _symmetry_equiv_pos_as_xyz
  1  'x, y, z'
loop_
 _atom_site_type_symbol
 _atom_site_label
 _atom_site_symmetry_multiplicity
 _atom_site_fract_x
 _atom_site_fract_y
 _atom_site_fract_z
 _atom_site_occupancy
  Ag  Ag0  1  0.00000000  0.25000000  0.38063500  1.0
  Ag  Ag1  1  0.50000000  0.25000000  0.61936500  1.0
  Ag  Ag2  1  0.00000000  0.25000000  0.87344900  1.0
  Ag  Ag3  1  0.50000000  0.25000000  0.12655100  1.0
  Ag  Ag4  1  0.75000000  0.11936500  0.00000000  1.0
  Ag  Ag5  1  0.25000000  0.38063500  0.00000000  1.0
  Ag  Ag6  1  0.25000000  0.12655100  0.50000000  1.0
  Ag  Ag7  1  0.75000000  0.37344900  0.50000000  1.0
  Ag  Ag8  1  0.88063500  0.50000000  0.75000000  1.0
  Ag  Ag9  1  0.11936500  0.00000000  0.75000000  1.0
  Ag  Ag10  1  0.37344900  0.50000000  0.75000000  1.0
  Ag  Ag11  1  0.62655100  0.00000000  0.75000000  1.0
  Ag  Ag12  1  0.50000000  0.75000000  0.88063500  1.0
  Ag  Ag13  1  0.00000000  0.75000000  0.11936500  1.0
  Ag  Ag14  1  0.50000000  0.75000000  0.37344900  1.0
  Ag  Ag15  1  0.00000000  0.75000000  0.62655100  1.0
  Ag  Ag16  1  0.25000000  0.61936500  0.50000000  1.0
  Ag  Ag17  1  0.75000000  0.88063500  0.50000000  1.0
  Ag  Ag18  1  0.75000000  0.62655100  0.00000000  1.0
  Ag  Ag19  1  0.25000000  0.87344900  0.00000000  1.0
  Ag  Ag20  1  0.38063500  0.00000000  0.25000000  1.0
  Ag  Ag21  1  0.61936500  0.50000000  0.25000000  1.0
  Ag  Ag22  1  0.87344900  0.00000000  0.25000000  1.0
  Ag  Ag23  1  0.12655100  0.50000000  0.25000000  1.0
  Au  Au24  1  0.12261350  0.12261350  0.12261350  1.0
  Au  Au25  1  0.37738650  0.87738650  0.62261350  1.0
  Au  Au26  1  0.12261350  0.87738650  0.37738650  1.0
  Au  Au27  1  0.37738650  0.12261350  0.87738650  1.0
  Au  Au28  1  0.62261350  0.62261350  0.62261350  1.0
  Au  Au29  1  0.87738650  0.37738650  0.12261350  1.0
  Au  Au30  1  0.62261350  0.37738650  0.87738650  1.0
  Au  Au31  1  0.87738650  0.62261350  0.37738650  1.0
  Se  Se32  1  0.26668100  0.26668100  0.26668100  1.0
  Se  Se33  1  0.23331900  0.73331900  0.76668100  1.0
  Se  Se34  1  0.76668100  0.23331900  0.73331900  1.0
  Se  Se35  1  0.23331900  0.26668100  0.73331900  1.0
  Se  Se36  1  0.76668100  0.76668100  0.76668100  1.0
  Se  Se37  1  0.73331900  0.23331900  0.26668100  1.0
  Se  Se38  1  0.26668100  0.73331900  0.23331900  1.0
  Se  Se39  1  0.73331900  0.76668100  0.23331900  1.0
  S  S40  1  0.01418750  0.51418750  0.98581250  1.0
  S  S41  1  0.48581250  0.48581250  0.48581250  1.0
  S  S42  1  0.98581250  0.01418750  0.51418750  1.0
  S  S43  1  0.01418750  0.48581250  0.51418750  1.0
  S  S44  1  0.51418750  0.01418750  0.48581250  1.0
  S  S45  1  0.98581250  0.98581250  0.98581250  1.0
  S  S46  1  0.48581250  0.51418750  0.01418750  1.0
  S  S47  1  0.51418750  0.98581250  0.01418750  1.0
