# generated using pymatgen
data_Ag2Hg3P4Br3
_symmetry_space_group_name_H-M   'P 1'
_cell_length_a   12.54503718
_cell_length_b   10.96140818
_cell_length_c   8.93490145
_cell_angle_alpha   90.00000000
_cell_angle_beta   103.62817481
_cell_angle_gamma   90.00000000
_symmetry_Int_Tables_number   1
_chemical_formula_structural   Ag2Hg3P4Br3
_chemical_formula_sum   'Ag8 Hg12 P16 Br12'
_cell_volume   1194.05735391
_cell_formula_units_Z   4
loop_
 _symmetry_equiv_pos_site_id
 _symmetry_equiv_pos_as_xyz
  1  'x, y, z'
loop_
 _atom_site_type_symbol
 _atom_site_label
 _atom_site_symmetry_multiplicity
 _atom_site_fract_x
 _atom_site_fract_y
 _atom_site_fract_z
 _atom_site_occupancy
  Ag  Ag0  1  0.75160500  0.26009000  0.51252200  1.0
  Ag  Ag1  1  0.24839500  0.26009000  0.48747800  1.0
  Ag  Ag2  1  0.84678850  0.50543650  0.68123000  1.0
  Ag  Ag3  1  0.15321150  0.50543650  0.31877000  1.0
  Ag  Ag4  1  0.25160500  0.76009000  0.51252200  1.0
  Ag  Ag5  1  0.74839500  0.76009000  0.48747800  1.0
  Ag  Ag6  1  0.34678850  0.00543650  0.68123000  1.0
  Ag  Ag7  1  0.65321150  0.00543650  0.31877000  1.0
  Hg  Hg8  1  0.05020000  0.81580900  0.77003200  1.0
  Hg  Hg9  1  0.05269100  0.18264000  0.76847300  1.0
  Hg  Hg10  1  0.74787300  0.49956900  0.11822600  1.0
  Hg  Hg11  1  0.94730900  0.18264000  0.23152700  1.0
  Hg  Hg12  1  0.94980000  0.81580900  0.22996800  1.0
  Hg  Hg13  1  0.25212700  0.49956900  0.88177400  1.0
  Hg  Hg14  1  0.55020000  0.31580900  0.77003200  1.0
  Hg  Hg15  1  0.55269100  0.68264000  0.76847300  1.0
  Hg  Hg16  1  0.24787300  0.99956900  0.11822600  1.0
  Hg  Hg17  1  0.44730900  0.68264000  0.23152700  1.0
  Hg  Hg18  1  0.44980000  0.31580900  0.22996800  1.0
  Hg  Hg19  1  0.75212700  0.99956900  0.88177400  1.0
  P  P20  1  0.56428400  0.50031500  0.93646800  1.0
  P  P21  1  0.43571600  0.50031500  0.06353200  1.0
  P  P22  1  0.08285450  0.66350850  0.57796000  1.0
  P  P23  1  0.08265550  0.33666150  0.57868500  1.0
  P  P24  1  0.93777300  0.50028400  0.28187200  1.0
  P  P25  1  0.91734450  0.33666150  0.42131500  1.0
  P  P26  1  0.91714550  0.66350850  0.42204000  1.0
  P  P27  1  0.06222700  0.50028400  0.71812800  1.0
  P  P28  1  0.06428400  0.00031500  0.93646800  1.0
  P  P29  1  0.93571600  0.00031500  0.06353200  1.0
  P  P30  1  0.58285450  0.16350850  0.57796000  1.0
  P  P31  1  0.58265550  0.83666150  0.57868500  1.0
  P  P32  1  0.43777300  0.00028400  0.28187200  1.0
  P  P33  1  0.41734450  0.83666150  0.42131500  1.0
  P  P34  1  0.41714550  0.16350850  0.42204000  1.0
  P  P35  1  0.56222700  0.00028400  0.71812800  1.0
  Br  Br36  1  0.64517100  0.50314900  0.46110400  1.0
  Br  Br37  1  0.83785550  0.70678550  0.85791500  1.0
  Br  Br38  1  0.83833500  0.29835200  0.85727700  1.0
  Br  Br39  1  0.35482900  0.50314900  0.53889600  1.0
  Br  Br40  1  0.16166500  0.29835200  0.14272300  1.0
  Br  Br41  1  0.16214450  0.70678550  0.14208500  1.0
  Br  Br42  1  0.14517100  0.00314900  0.46110400  1.0
  Br  Br43  1  0.33785550  0.20678550  0.85791500  1.0
  Br  Br44  1  0.33833500  0.79835200  0.85727700  1.0
  Br  Br45  1  0.85482900  0.00314900  0.53889600  1.0
  Br  Br46  1  0.66166500  0.79835200  0.14272300  1.0
  Br  Br47  1  0.66214450  0.20678550  0.14208500  1.0
