# generated using pymatgen
data_Ag2Mo(I2O7)2
_symmetry_space_group_name_H-M   'P 1'
_cell_length_a   12.78472201
_cell_length_b   5.82550600
_cell_length_c   17.76058119
_cell_angle_alpha   90.00000000
_cell_angle_beta   99.26253696
_cell_angle_gamma   90.00000000
_symmetry_Int_Tables_number   1
_chemical_formula_structural   Ag2Mo(I2O7)2
_chemical_formula_sum   'Ag8 Mo4 I16 O56'
_cell_volume   1305.51595349
_cell_formula_units_Z   4
loop_
 _symmetry_equiv_pos_site_id
 _symmetry_equiv_pos_as_xyz
  1  'x, y, z'
loop_
 _atom_site_type_symbol
 _atom_site_label
 _atom_site_symmetry_multiplicity
 _atom_site_fract_x
 _atom_site_fract_y
 _atom_site_fract_z
 _atom_site_occupancy
  Ag  Ag0  1  0.82360850  0.49440550  0.03987400  1.0
  Ag  Ag1  1  0.67639150  0.99440550  0.46012600  1.0
  Ag  Ag2  1  0.67639150  0.00559450  0.96012600  1.0
  Ag  Ag3  1  0.82360850  0.50559450  0.53987400  1.0
  Ag  Ag4  1  0.32360850  0.99440550  0.03987400  1.0
  Ag  Ag5  1  0.17639150  0.49440550  0.46012600  1.0
  Ag  Ag6  1  0.17639150  0.50559450  0.96012600  1.0
  Ag  Ag7  1  0.32360850  0.00559450  0.53987400  1.0
  Mo  Mo8  1  0.00000000  0.56871800  0.25000000  1.0
  Mo  Mo9  1  0.00000000  0.43128200  0.75000000  1.0
  Mo  Mo10  1  0.50000000  0.06871800  0.25000000  1.0
  Mo  Mo11  1  0.50000000  0.93128200  0.75000000  1.0
  I  I12  1  0.54078650  0.39792150  0.08776800  1.0
  I  I13  1  0.95921350  0.89792150  0.41223200  1.0
  I  I14  1  0.95921350  0.10207850  0.91223200  1.0
  I  I15  1  0.54078650  0.60207850  0.58776800  1.0
  I  I16  1  0.78812250  0.98975550  0.17427700  1.0
  I  I17  1  0.71187750  0.48975550  0.32572300  1.0
  I  I18  1  0.71187750  0.51024450  0.82572300  1.0
  I  I19  1  0.78812250  0.01024450  0.67427700  1.0
  I  I20  1  0.04078650  0.89792150  0.08776800  1.0
  I  I21  1  0.45921350  0.39792150  0.41223200  1.0
  I  I22  1  0.45921350  0.60207850  0.91223200  1.0
  I  I23  1  0.04078650  0.10207850  0.58776800  1.0
  I  I24  1  0.28812250  0.48975550  0.17427700  1.0
  I  I25  1  0.21187750  0.98975550  0.32572300  1.0
  I  I26  1  0.21187750  0.01024450  0.82572300  1.0
  I  I27  1  0.28812250  0.51024450  0.67427700  1.0
  O  O28  1  0.66117200  0.24422300  0.06980200  1.0
  O  O29  1  0.83882800  0.74422300  0.43019800  1.0
  O  O30  1  0.83882800  0.25577700  0.93019800  1.0
  O  O31  1  0.66117200  0.75577700  0.56980200  1.0
  O  O32  1  0.98522850  0.63815150  0.13920500  1.0
  O  O33  1  0.51477150  0.13815150  0.36079500  1.0
  O  O34  1  0.51477150  0.86184850  0.86079500  1.0
  O  O35  1  0.98522850  0.36184850  0.63920500  1.0
  O  O36  1  0.95145050  0.79885650  0.00036400  1.0
  O  O37  1  0.54854950  0.29885650  0.49963600  1.0
  O  O38  1  0.54854950  0.70114350  0.99963600  1.0
  O  O39  1  0.95145050  0.20114350  0.50036400  1.0
  O  O40  1  0.87551000  0.09062500  0.10833300  1.0
  O  O41  1  0.62449000  0.59062500  0.39166700  1.0
  O  O42  1  0.62449000  0.40937500  0.89166700  1.0
  O  O43  1  0.87551000  0.90937500  0.60833300  1.0
  O  O44  1  0.88782750  0.86187650  0.25226500  1.0
  O  O45  1  0.61217250  0.36187650  0.24773500  1.0
  O  O46  1  0.61217250  0.63812350  0.74773500  1.0
  O  O47  1  0.88782750  0.13812350  0.75226500  1.0
  O  O48  1  0.73589250  0.73126150  0.12459900  1.0
  O  O49  1  0.76410750  0.23126150  0.37540100  1.0
  O  O50  1  0.76410750  0.76873850  0.87540100  1.0
  O  O51  1  0.73589250  0.26873850  0.62459900  1.0
  O  O52  1  0.60957850  0.88331150  0.25690900  1.0
  O  O53  1  0.89042150  0.38331150  0.24309100  1.0
  O  O54  1  0.89042150  0.61668850  0.74309100  1.0
  O  O55  1  0.60957850  0.11668850  0.75690900  1.0
  O  O56  1  0.16117200  0.74422300  0.06980200  1.0
  O  O57  1  0.33882800  0.24422300  0.43019800  1.0
  O  O58  1  0.33882800  0.75577700  0.93019800  1.0
  O  O59  1  0.16117200  0.25577700  0.56980200  1.0
  O  O60  1  0.48522850  0.13815150  0.13920500  1.0
  O  O61  1  0.01477150  0.63815150  0.36079500  1.0
  O  O62  1  0.01477150  0.36184850  0.86079500  1.0
  O  O63  1  0.48522850  0.86184850  0.63920500  1.0
  O  O64  1  0.45145050  0.29885650  0.00036400  1.0
  O  O65  1  0.04854950  0.79885650  0.49963600  1.0
  O  O66  1  0.04854950  0.20114350  0.99963600  1.0
  O  O67  1  0.45145050  0.70114350  0.50036400  1.0
  O  O68  1  0.37551000  0.59062500  0.10833300  1.0
  O  O69  1  0.12449000  0.09062500  0.39166700  1.0
  O  O70  1  0.12449000  0.90937500  0.89166700  1.0
  O  O71  1  0.37551000  0.40937500  0.60833300  1.0
  O  O72  1  0.38782750  0.36187650  0.25226500  1.0
  O  O73  1  0.11217250  0.86187650  0.24773500  1.0
  O  O74  1  0.11217250  0.13812350  0.74773500  1.0
  O  O75  1  0.38782750  0.63812350  0.75226500  1.0
  O  O76  1  0.23589250  0.23126150  0.12459900  1.0
  O  O77  1  0.26410750  0.73126150  0.37540100  1.0
  O  O78  1  0.26410750  0.26873850  0.87540100  1.0
  O  O79  1  0.23589250  0.76873850  0.62459900  1.0
  O  O80  1  0.10957850  0.38331150  0.25690900  1.0
  O  O81  1  0.39042150  0.88331150  0.24309100  1.0
  O  O82  1  0.39042150  0.11668850  0.74309100  1.0
  O  O83  1  0.10957850  0.61668850  0.75690900  1.0
