# generated using pymatgen
data_Ag2Te3Mo3O16
_symmetry_space_group_name_H-M   'P 1'
_cell_length_a   10.50632401
_cell_length_b   11.55021801
_cell_length_c   7.54646473
_cell_angle_alpha   90.00000000
_cell_angle_beta   127.66637214
_cell_angle_gamma   90.00000000
_symmetry_Int_Tables_number   1
_chemical_formula_structural   Ag2Te3Mo3O16
_chemical_formula_sum   'Ag4 Te6 Mo6 O32'
_cell_volume   724.90417282
_cell_formula_units_Z   2
loop_
 _symmetry_equiv_pos_site_id
 _symmetry_equiv_pos_as_xyz
  1  'x, y, z'
loop_
 _atom_site_type_symbol
 _atom_site_label
 _atom_site_symmetry_multiplicity
 _atom_site_fract_x
 _atom_site_fract_y
 _atom_site_fract_z
 _atom_site_occupancy
  Ag  Ag0  1  0.50000000  0.59603700  0.50000000  1.0
  Ag  Ag1  1  0.50000000  0.03218900  0.00000000  1.0
  Ag  Ag2  1  0.00000000  0.09603700  0.50000000  1.0
  Ag  Ag3  1  0.00000000  0.53218900  0.00000000  1.0
  Te  Te4  1  0.50000000  0.09398700  0.50000000  1.0
  Te  Te5  1  0.72365300  0.25381000  0.00146500  1.0
  Te  Te6  1  0.27634700  0.25381000  0.99853500  1.0
  Te  Te7  1  0.00000000  0.59398700  0.50000000  1.0
  Te  Te8  1  0.22365300  0.75381000  0.00146500  1.0
  Te  Te9  1  0.77634700  0.75381000  0.99853500  1.0
  Mo  Mo10  1  0.77657700  0.83900000  0.53303400  1.0
  Mo  Mo11  1  0.22342300  0.83900000  0.46696600  1.0
  Mo  Mo12  1  0.50000000  0.49949800  0.00000000  1.0
  Mo  Mo13  1  0.27657700  0.33900000  0.53303400  1.0
  Mo  Mo14  1  0.72342300  0.33900000  0.46696600  1.0
  Mo  Mo15  1  0.00000000  0.99949800  0.00000000  1.0
  O  O16  1  0.66137000  0.20375000  0.56212200  1.0
  O  O17  1  0.33863000  0.20375000  0.43787800  1.0
  O  O18  1  0.60411400  0.11411600  0.83791700  1.0
  O  O19  1  0.39588600  0.11411600  0.16208300  1.0
  O  O20  1  0.73023250  0.20830150  0.24645400  1.0
  O  O21  1  0.26976750  0.20830150  0.75354600  1.0
  O  O22  1  0.53111250  0.34776850  0.84067000  1.0
  O  O23  1  0.46888750  0.34776850  0.15933000  1.0
  O  O24  1  0.80774200  0.94194200  0.39084700  1.0
  O  O25  1  0.19225800  0.94194200  0.60915300  1.0
  O  O26  1  0.56658000  0.82777700  0.34973400  1.0
  O  O27  1  0.43342000  0.82777700  0.65026600  1.0
  O  O28  1  0.78497100  0.95232300  0.74033600  1.0
  O  O29  1  0.21502900  0.95232300  0.25966400  1.0
  O  O30  1  0.55559700  0.59404000  0.87269400  1.0
  O  O31  1  0.44440300  0.59404000  0.12730600  1.0
  O  O32  1  0.16137000  0.70375000  0.56212200  1.0
  O  O33  1  0.83863000  0.70375000  0.43787800  1.0
  O  O34  1  0.10411400  0.61411600  0.83791700  1.0
  O  O35  1  0.89588600  0.61411600  0.16208300  1.0
  O  O36  1  0.23023250  0.70830150  0.24645400  1.0
  O  O37  1  0.76976750  0.70830150  0.75354600  1.0
  O  O38  1  0.03111250  0.84776850  0.84067000  1.0
  O  O39  1  0.96888750  0.84776850  0.15933000  1.0
  O  O40  1  0.30774200  0.44194200  0.39084700  1.0
  O  O41  1  0.69225800  0.44194200  0.60915300  1.0
  O  O42  1  0.06658000  0.32777700  0.34973400  1.0
  O  O43  1  0.93342000  0.32777700  0.65026600  1.0
  O  O44  1  0.28497100  0.45232300  0.74033600  1.0
  O  O45  1  0.71502900  0.45232300  0.25966400  1.0
  O  O46  1  0.05559700  0.09404000  0.87269400  1.0
  O  O47  1  0.94440300  0.09404000  0.12730600  1.0
