# generated using pymatgen
data_Ag2SnBiS4
_symmetry_space_group_name_H-M   'P 1'
_cell_length_a   5.57273400
_cell_length_b   5.57273400
_cell_length_c   11.32205999
_cell_angle_alpha   90.00000000
_cell_angle_beta   90.00000000
_cell_angle_gamma   90.00000000
_symmetry_Int_Tables_number   1
_chemical_formula_structural   Ag2SnBiS4
_chemical_formula_sum   'Ag4 Sn2 Bi2 S8'
_cell_volume   351.61069688
_cell_formula_units_Z   2
loop_
 _symmetry_equiv_pos_site_id
 _symmetry_equiv_pos_as_xyz
  1  'x, y, z'
loop_
 _atom_site_type_symbol
 _atom_site_label
 _atom_site_symmetry_multiplicity
 _atom_site_fract_x
 _atom_site_fract_y
 _atom_site_fract_z
 _atom_site_occupancy
  Ag  Ag0  1  0.50000000  0.50000000  0.00000000  1.0
  Ag  Ag1  1  0.50000000  0.00000000  0.25000000  1.0
  Ag  Ag2  1  0.00000000  0.00000000  0.50000000  1.0
  Ag  Ag3  1  0.00000000  0.50000000  0.75000000  1.0
  Sn  Sn4  1  0.00000000  0.00000000  0.00000000  1.0
  Sn  Sn5  1  0.50000000  0.50000000  0.50000000  1.0
  Bi  Bi6  1  0.00000000  0.50000000  0.25000000  1.0
  Bi  Bi7  1  0.50000000  0.00000000  0.75000000  1.0
  S  S8  1  0.50000000  0.00000000  0.00106700  1.0
  S  S9  1  0.50000000  0.50000000  0.25348100  1.0
  S  S10  1  0.50000000  0.00000000  0.49893300  1.0
  S  S11  1  0.00000000  0.00000000  0.24651900  1.0
  S  S12  1  0.00000000  0.50000000  0.50106700  1.0
  S  S13  1  0.00000000  0.00000000  0.75348100  1.0
  S  S14  1  0.00000000  0.50000000  0.99893300  1.0
  S  S15  1  0.50000000  0.50000000  0.74651900  1.0
