# generated using pymatgen
data_Ag2B8O13
_symmetry_space_group_name_H-M   'P 1'
_cell_length_a   10.73510670
_cell_length_b   8.48136500
_cell_length_c   11.58937072
_cell_angle_alpha   90.00000000
_cell_angle_beta   101.09477590
_cell_angle_gamma   90.00000000
_symmetry_Int_Tables_number   1
_chemical_formula_structural   Ag2B8O13
_chemical_formula_sum   'Ag8 B32 O52'
_cell_volume   1035.47184200
_cell_formula_units_Z   4
loop_
 _symmetry_equiv_pos_site_id
 _symmetry_equiv_pos_as_xyz
  1  'x, y, z'
loop_
 _atom_site_type_symbol
 _atom_site_label
 _atom_site_symmetry_multiplicity
 _atom_site_fract_x
 _atom_site_fract_y
 _atom_site_fract_z
 _atom_site_occupancy
  Ag  Ag0  1  0.56497500  0.87553600  0.61848600  1.0
  Ag  Ag1  1  0.21176600  0.86682900  0.92506000  1.0
  Ag  Ag2  1  0.71116200  0.63189200  0.92594700  1.0
  Ag  Ag3  1  0.05565000  0.58620300  0.61477300  1.0
  Ag  Ag4  1  0.43502500  0.37553600  0.38151400  1.0
  Ag  Ag5  1  0.78823400  0.36682900  0.07494000  1.0
  Ag  Ag6  1  0.28883800  0.13189200  0.07405300  1.0
  Ag  Ag7  1  0.94435000  0.08620300  0.38522700  1.0
  B  B8  1  0.29046900  0.99590400  0.70975800  1.0
  B  B9  1  0.44782900  0.95844500  0.32778800  1.0
  B  B10  1  0.64184800  0.92765400  0.24288200  1.0
  B  B11  1  0.49084700  0.92248100  0.87204900  1.0
  B  B12  1  0.81565800  0.90576400  0.12454200  1.0
  B  B13  1  0.85644200  0.88566800  0.59996500  1.0
  B  B14  1  0.96943600  0.83029700  0.00431200  1.0
  B  B15  1  0.30276200  0.82086300  0.43993300  1.0
  B  B16  1  0.80253900  0.67955400  0.43972100  1.0
  B  B17  1  0.46971800  0.66945100  0.00472700  1.0
  B  B18  1  0.35474700  0.61412400  0.59948500  1.0
  B  B19  1  0.31638700  0.59374100  0.12530100  1.0
  B  B20  1  0.99127300  0.57703700  0.87262600  1.0
  B  B21  1  0.14146500  0.57087300  0.24191700  1.0
  B  B22  1  0.94773800  0.54363900  0.32762500  1.0
  B  B23  1  0.79067800  0.50357700  0.71025100  1.0
  B  B24  1  0.70953100  0.49590400  0.29024200  1.0
  B  B25  1  0.55217100  0.45844500  0.67221200  1.0
  B  B26  1  0.35815200  0.42765400  0.75711800  1.0
  B  B27  1  0.50915300  0.42248100  0.12795100  1.0
  B  B28  1  0.18434200  0.40576400  0.87545800  1.0
  B  B29  1  0.14355800  0.38566800  0.40003500  1.0
  B  B30  1  0.03056400  0.33029700  0.99568800  1.0
  B  B31  1  0.69723800  0.32086300  0.56006700  1.0
  B  B32  1  0.19746100  0.17955400  0.56027900  1.0
  B  B33  1  0.53028200  0.16945100  0.99527300  1.0
  B  B34  1  0.64525300  0.11412400  0.40051500  1.0
  B  B35  1  0.68361300  0.09374100  0.87469900  1.0
  B  B36  1  0.00872700  0.07703700  0.12737400  1.0
  B  B37  1  0.85853500  0.07087300  0.75808300  1.0
  B  B38  1  0.05226200  0.04363900  0.67237500  1.0
  B  B39  1  0.20932200  0.00357700  0.28974900  1.0
  O  O40  1  0.79201300  0.96385300  0.67663600  1.0
  O  O41  1  0.17313300  0.97793900  0.73972500  1.0
  O  O42  1  0.04100300  0.95961600  0.04476800  1.0
  O  O43  1  0.61307300  0.96550700  0.83477400  1.0
  O  O44  1  0.98033000  0.91439300  0.59918600  1.0
  O  O45  1  0.19730400  0.90332900  0.38204100  1.0
  O  O46  1  0.39258000  0.91162900  0.76505600  1.0
  O  O47  1  0.52083900  0.88873800  0.24600600  1.0
  O  O48  1  0.70356000  0.86542300  0.15847600  1.0
  O  O49  1  0.42057500  0.84014200  0.41458900  1.0
  O  O50  1  0.85215400  0.80692000  0.03952900  1.0
  O  O51  1  0.77949200  0.78225000  0.52620600  1.0
  O  O52  1  0.01113300  0.73422900  0.92684300  1.0
  O  O53  1  0.51103500  0.76523900  0.92683300  1.0
  O  O54  1  0.27855900  0.71632800  0.52468200  1.0
  O  O55  1  0.35277500  0.69304900  0.04041900  1.0
  O  O56  1  0.91994300  0.66409500  0.41277100  1.0
  O  O57  1  0.20412800  0.63454900  0.15879200  1.0
  O  O58  1  0.02091100  0.61159300  0.24534100  1.0
  O  O59  1  0.89349100  0.58718300  0.76494700  1.0
  O  O60  1  0.69762000  0.59569600  0.38298700  1.0
  O  O61  1  0.48046000  0.59084000  0.60270000  1.0
  O  O62  1  0.11341800  0.53366800  0.83507500  1.0
  O  O63  1  0.54132500  0.54016300  0.04526100  1.0
  O  O64  1  0.67341900  0.52311100  0.73981000  1.0
  O  O65  1  0.29000000  0.53138700  0.67373400  1.0
  O  O66  1  0.20798700  0.46385300  0.32336400  1.0
  O  O67  1  0.82686700  0.47793900  0.26027500  1.0
  O  O68  1  0.95899700  0.45961600  0.95523200  1.0
  O  O69  1  0.38692700  0.46550700  0.16522600  1.0
  O  O70  1  0.01967000  0.41439300  0.40081400  1.0
  O  O71  1  0.80269600  0.40332900  0.61795900  1.0
  O  O72  1  0.60742000  0.41162900  0.23494400  1.0
  O  O73  1  0.47916100  0.38873800  0.75399400  1.0
  O  O74  1  0.29644000  0.36542300  0.84152400  1.0
  O  O75  1  0.57942500  0.34014200  0.58541100  1.0
  O  O76  1  0.14784600  0.30692000  0.96047100  1.0
  O  O77  1  0.22050800  0.28225000  0.47379400  1.0
  O  O78  1  0.98886700  0.23422900  0.07315700  1.0
  O  O79  1  0.48896500  0.26523900  0.07316700  1.0
  O  O80  1  0.72144100  0.21632800  0.47531800  1.0
  O  O81  1  0.64722500  0.19304900  0.95958100  1.0
  O  O82  1  0.08005700  0.16409500  0.58722900  1.0
  O  O83  1  0.79587200  0.13454900  0.84120800  1.0
  O  O84  1  0.97908900  0.11159300  0.75465900  1.0
  O  O85  1  0.10650900  0.08718300  0.23505300  1.0
  O  O86  1  0.30238000  0.09569600  0.61701300  1.0
  O  O87  1  0.51954000  0.09084000  0.39730000  1.0
  O  O88  1  0.88658200  0.03366800  0.16492500  1.0
  O  O89  1  0.45867500  0.04016300  0.95473900  1.0
  O  O90  1  0.32658100  0.02311100  0.26019000  1.0
  O  O91  1  0.71000000  0.03138700  0.32626600  1.0
