# generated using pymatgen
data_Ag3Bi7S12
_symmetry_space_group_name_H-M   'P 1'
_cell_length_a   13.46998000
_cell_length_b   4.07467600
_cell_length_c   20.45132175
_cell_angle_alpha   90.00000000
_cell_angle_beta   102.08497612
_cell_angle_gamma   90.00000000
_symmetry_Int_Tables_number   1
_chemical_formula_structural   Ag3Bi7S12
_chemical_formula_sum   'Ag6 Bi14 S24'
_cell_volume   1097.61086865
_cell_formula_units_Z   2
loop_
 _symmetry_equiv_pos_site_id
 _symmetry_equiv_pos_as_xyz
  1  'x, y, z'
loop_
 _atom_site_type_symbol
 _atom_site_label
 _atom_site_symmetry_multiplicity
 _atom_site_fract_x
 _atom_site_fract_y
 _atom_site_fract_z
 _atom_site_occupancy
  Ag  Ag0  1  0.00000000  0.00000000  0.50000000  1.0
  Ag  Ag1  1  0.20093900  0.50000000  0.91226600  1.0
  Ag  Ag2  1  0.79906100  0.50000000  0.08773400  1.0
  Ag  Ag3  1  0.50000000  0.50000000  0.50000000  1.0
  Ag  Ag4  1  0.70093900  0.00000000  0.91226600  1.0
  Ag  Ag5  1  0.29906100  0.00000000  0.08773400  1.0
  Bi  Bi6  1  0.38635700  0.00000000  0.82737800  1.0
  Bi  Bi7  1  0.61364300  0.00000000  0.17262200  1.0
  Bi  Bi8  1  0.00000000  0.00000000  0.00000000  1.0
  Bi  Bi9  1  0.26249100  0.50000000  0.58880500  1.0
  Bi  Bi10  1  0.73750900  0.50000000  0.41119500  1.0
  Bi  Bi11  1  0.08182900  0.00000000  0.73196800  1.0
  Bi  Bi12  1  0.91817100  0.00000000  0.26803200  1.0
  Bi  Bi13  1  0.88635700  0.50000000  0.82737800  1.0
  Bi  Bi14  1  0.11364300  0.50000000  0.17262200  1.0
  Bi  Bi15  1  0.50000000  0.50000000  0.00000000  1.0
  Bi  Bi16  1  0.76249100  0.00000000  0.58880500  1.0
  Bi  Bi17  1  0.23750900  0.00000000  0.41119500  1.0
  Bi  Bi18  1  0.58182900  0.50000000  0.73196800  1.0
  Bi  Bi19  1  0.41817100  0.50000000  0.26803200  1.0
  S  S20  1  0.06289500  0.50000000  0.29698600  1.0
  S  S21  1  0.93710500  0.50000000  0.70301400  1.0
  S  S22  1  0.76733300  0.50000000  0.21033500  1.0
  S  S23  1  0.23266700  0.50000000  0.78966500  1.0
  S  S24  1  0.87356600  0.00000000  0.38862000  1.0
  S  S25  1  0.12643400  0.00000000  0.61138000  1.0
  S  S26  1  0.65160500  0.00000000  0.03445500  1.0
  S  S27  1  0.34839500  0.00000000  0.96554500  1.0
  S  S28  1  0.96797800  0.00000000  0.13158600  1.0
  S  S29  1  0.03202200  0.00000000  0.86841400  1.0
  S  S30  1  0.13756300  0.50000000  0.47095900  1.0
  S  S31  1  0.86243700  0.50000000  0.52904100  1.0
  S  S32  1  0.56289500  0.00000000  0.29698600  1.0
  S  S33  1  0.43710500  0.00000000  0.70301400  1.0
  S  S34  1  0.26733300  0.00000000  0.21033500  1.0
  S  S35  1  0.73266700  0.00000000  0.78966500  1.0
  S  S36  1  0.37356600  0.50000000  0.38862000  1.0
  S  S37  1  0.62643400  0.50000000  0.61138000  1.0
  S  S38  1  0.15160500  0.50000000  0.03445500  1.0
  S  S39  1  0.84839500  0.50000000  0.96554500  1.0
  S  S40  1  0.46797800  0.50000000  0.13158600  1.0
  S  S41  1  0.53202200  0.50000000  0.86841400  1.0
  S  S42  1  0.63756300  0.00000000  0.47095900  1.0
  S  S43  1  0.36243700  0.00000000  0.52904100  1.0
