# generated using pymatgen
data_Ag4Te(PO7)2
_symmetry_space_group_name_H-M   'P 1'
_cell_length_a   5.59647800
_cell_length_b   18.79397800
_cell_length_c   6.69527240
_cell_angle_alpha   90.00000000
_cell_angle_beta   123.98180553
_cell_angle_gamma   90.00000000
_symmetry_Int_Tables_number   1
_chemical_formula_structural   Ag4Te(PO7)2
_chemical_formula_sum   'Ag8 Te2 P4 O28'
_cell_volume   583.94100161
_cell_formula_units_Z   2
loop_
 _symmetry_equiv_pos_site_id
 _symmetry_equiv_pos_as_xyz
  1  'x, y, z'
loop_
 _atom_site_type_symbol
 _atom_site_label
 _atom_site_symmetry_multiplicity
 _atom_site_fract_x
 _atom_site_fract_y
 _atom_site_fract_z
 _atom_site_occupancy
  Ag  Ag0  1  0.04515700  0.32145600  0.42560200  1.0
  Ag  Ag1  1  0.04515700  0.17854400  0.92560200  1.0
  Ag  Ag2  1  0.95484300  0.67854400  0.57439800  1.0
  Ag  Ag3  1  0.95484300  0.82145600  0.07439800  1.0
  Ag  Ag4  1  0.23472000  0.06481400  0.61410200  1.0
  Ag  Ag5  1  0.23472000  0.43518600  0.11410200  1.0
  Ag  Ag6  1  0.76528000  0.93518600  0.38589800  1.0
  Ag  Ag7  1  0.76528000  0.56481400  0.88589800  1.0
  Te  Te8  1  0.00000000  0.50000000  0.50000000  1.0
  Te  Te9  1  0.00000000  0.00000000  0.00000000  1.0
  P  P10  1  0.72440000  0.16848100  0.40651800  1.0
  P  P11  1  0.72440000  0.33151900  0.90651800  1.0
  P  P12  1  0.27560000  0.83151900  0.59348200  1.0
  P  P13  1  0.27560000  0.66848100  0.09348200  1.0
  O  O14  1  0.23608300  0.44906000  0.80672800  1.0
  O  O15  1  0.23608300  0.05094000  0.30672800  1.0
  O  O16  1  0.76391700  0.55094000  0.19327200  1.0
  O  O17  1  0.76391700  0.94906000  0.69327200  1.0
  O  O18  1  0.84152600  0.57742700  0.61052200  1.0
  O  O19  1  0.84152600  0.92257300  0.11052200  1.0
  O  O20  1  0.15847400  0.42257300  0.38947800  1.0
  O  O21  1  0.15847400  0.07742700  0.88947800  1.0
  O  O22  1  0.66614300  0.44257400  0.40514600  1.0
  O  O23  1  0.66614300  0.05742600  0.90514600  1.0
  O  O24  1  0.33385700  0.55742600  0.59485400  1.0
  O  O25  1  0.33385700  0.94257400  0.09485400  1.0
  O  O26  1  0.99052500  0.28542400  0.97209200  1.0
  O  O27  1  0.99052500  0.21457600  0.47209200  1.0
  O  O28  1  0.00947500  0.71457600  0.02790800  1.0
  O  O29  1  0.00947500  0.78542400  0.52790800  1.0
  O  O30  1  0.46134800  0.19854500  0.17764200  1.0
  O  O31  1  0.46134800  0.30145500  0.67764200  1.0
  O  O32  1  0.53865200  0.80145500  0.82235800  1.0
  O  O33  1  0.53865200  0.69854500  0.32235800  1.0
  O  O34  1  0.66026900  0.17260600  0.60670400  1.0
  O  O35  1  0.66026900  0.32739400  0.10670400  1.0
  O  O36  1  0.33973100  0.82739400  0.39329600  1.0
  O  O37  1  0.33973100  0.67260600  0.89329600  1.0
  O  O38  1  0.80390800  0.09117500  0.37681700  1.0
  O  O39  1  0.80390800  0.40882500  0.87681700  1.0
  O  O40  1  0.19609200  0.90882500  0.62318300  1.0
  O  O41  1  0.19609200  0.59117500  0.12318300  1.0
