# generated using pymatgen
data_Ag2Te4MoO12
_symmetry_space_group_name_H-M   'P 1'
_cell_length_a   17.85322600
_cell_length_b   5.92207000
_cell_length_c   11.58711523
_cell_angle_alpha   90.00000000
_cell_angle_beta   104.59759995
_cell_angle_gamma   90.00000000
_symmetry_Int_Tables_number   1
_chemical_formula_structural   Ag2Te4MoO12
_chemical_formula_sum   'Ag8 Te16 Mo4 O48'
_cell_volume   1185.53712933
_cell_formula_units_Z   4
loop_
 _symmetry_equiv_pos_site_id
 _symmetry_equiv_pos_as_xyz
  1  'x, y, z'
loop_
 _atom_site_type_symbol
 _atom_site_label
 _atom_site_symmetry_multiplicity
 _atom_site_fract_x
 _atom_site_fract_y
 _atom_site_fract_z
 _atom_site_occupancy
  Ag  Ag0  1  0.78563250  0.71972650  0.22968600  1.0
  Ag  Ag1  1  0.71436750  0.21972650  0.27031400  1.0
  Ag  Ag2  1  0.71436750  0.78027350  0.77031400  1.0
  Ag  Ag3  1  0.78563250  0.28027350  0.72968600  1.0
  Ag  Ag4  1  0.28563250  0.21972650  0.22968600  1.0
  Ag  Ag5  1  0.21436750  0.71972650  0.27031400  1.0
  Ag  Ag6  1  0.21436750  0.28027350  0.77031400  1.0
  Ag  Ag7  1  0.28563250  0.78027350  0.72968600  1.0
  Te  Te8  1  0.65580100  0.67030800  0.43051900  1.0
  Te  Te9  1  0.84419900  0.17030800  0.06948100  1.0
  Te  Te10  1  0.84419900  0.82969200  0.56948100  1.0
  Te  Te11  1  0.65580100  0.32969200  0.93051900  1.0
  Te  Te12  1  0.59227200  0.22079600  0.59558900  1.0
  Te  Te13  1  0.90772800  0.72079600  0.90441100  1.0
  Te  Te14  1  0.90772800  0.27920400  0.40441100  1.0
  Te  Te15  1  0.59227200  0.77920400  0.09558900  1.0
  Te  Te16  1  0.15580100  0.17030800  0.43051900  1.0
  Te  Te17  1  0.34419900  0.67030800  0.06948100  1.0
  Te  Te18  1  0.34419900  0.32969200  0.56948100  1.0
  Te  Te19  1  0.15580100  0.82969200  0.93051900  1.0
  Te  Te20  1  0.09227200  0.72079600  0.59558900  1.0
  Te  Te21  1  0.40772800  0.22079600  0.90441100  1.0
  Te  Te22  1  0.40772800  0.77920400  0.40441100  1.0
  Te  Te23  1  0.09227200  0.27920400  0.09558900  1.0
  Mo  Mo24  1  0.00000000  0.15804800  0.75000000  1.0
  Mo  Mo25  1  0.00000000  0.84195200  0.25000000  1.0
  Mo  Mo26  1  0.50000000  0.65804800  0.75000000  1.0
  Mo  Mo27  1  0.50000000  0.34195200  0.25000000  1.0
  O  O28  1  0.50981000  0.37207900  0.63425400  1.0
  O  O29  1  0.99019000  0.87207900  0.86574600  1.0
  O  O30  1  0.99019000  0.12792100  0.36574600  1.0
  O  O31  1  0.50981000  0.62792100  0.13425400  1.0
  O  O32  1  0.60977500  0.40112200  0.33404100  1.0
  O  O33  1  0.89022500  0.90112200  0.16595900  1.0
  O  O34  1  0.89022500  0.09887800  0.66595900  1.0
  O  O35  1  0.60977500  0.59887800  0.83404100  1.0
  O  O36  1  0.75533950  0.56835450  0.42524400  1.0
  O  O37  1  0.74466050  0.06835450  0.07475600  1.0
  O  O38  1  0.74466050  0.93164550  0.57475600  1.0
  O  O39  1  0.75533950  0.43164550  0.92524400  1.0
  O  O40  1  0.52153100  0.84512600  0.64323200  1.0
  O  O41  1  0.97846900  0.34512600  0.85676800  1.0
  O  O42  1  0.97846900  0.65487400  0.35676800  1.0
  O  O43  1  0.52153100  0.15487400  0.14323200  1.0
  O  O44  1  0.65643950  0.48674850  0.58299300  1.0
  O  O45  1  0.84356050  0.98674850  0.91700700  1.0
  O  O46  1  0.84356050  0.01325150  0.41700700  1.0
  O  O47  1  0.65643950  0.51325150  0.08299300  1.0
  O  O48  1  0.65556200  0.15732800  0.75245400  1.0
  O  O49  1  0.84443800  0.65732800  0.74754600  1.0
  O  O50  1  0.84443800  0.34267200  0.24754600  1.0
  O  O51  1  0.65556200  0.84267200  0.25245400  1.0
  O  O52  1  0.00981000  0.87207900  0.63425400  1.0
  O  O53  1  0.49019000  0.37207900  0.86574600  1.0
  O  O54  1  0.49019000  0.62792100  0.36574600  1.0
  O  O55  1  0.00981000  0.12792100  0.13425400  1.0
  O  O56  1  0.10977500  0.90112200  0.33404100  1.0
  O  O57  1  0.39022500  0.40112200  0.16595900  1.0
  O  O58  1  0.39022500  0.59887800  0.66595900  1.0
  O  O59  1  0.10977500  0.09887800  0.83404100  1.0
  O  O60  1  0.25533950  0.06835450  0.42524400  1.0
  O  O61  1  0.24466050  0.56835450  0.07475600  1.0
  O  O62  1  0.24466050  0.43164550  0.57475600  1.0
  O  O63  1  0.25533950  0.93164550  0.92524400  1.0
  O  O64  1  0.02153100  0.34512600  0.64323200  1.0
  O  O65  1  0.47846900  0.84512600  0.85676800  1.0
  O  O66  1  0.47846900  0.15487400  0.35676800  1.0
  O  O67  1  0.02153100  0.65487400  0.14323200  1.0
  O  O68  1  0.15643950  0.98674850  0.58299300  1.0
  O  O69  1  0.34356050  0.48674850  0.91700700  1.0
  O  O70  1  0.34356050  0.51325150  0.41700700  1.0
  O  O71  1  0.15643950  0.01325150  0.08299300  1.0
  O  O72  1  0.15556200  0.65732800  0.75245400  1.0
  O  O73  1  0.34443800  0.15732800  0.74754600  1.0
  O  O74  1  0.34443800  0.84267200  0.24754600  1.0
  O  O75  1  0.15556200  0.34267200  0.25245400  1.0
