# generated using pymatgen
data_Ag6S2IBr
_symmetry_space_group_name_H-M   'P 1'
_cell_length_a   9.69583600
_cell_length_b   9.92687800
_cell_length_c   10.07590400
_cell_angle_alpha   90.00000000
_cell_angle_beta   90.00000000
_cell_angle_gamma   90.00000000
_symmetry_Int_Tables_number   1
_chemical_formula_structural   Ag6S2IBr
_chemical_formula_sum   'Ag24 S8 I4 Br4'
_cell_volume   969.79952382
_cell_formula_units_Z   4
loop_
 _symmetry_equiv_pos_site_id
 _symmetry_equiv_pos_as_xyz
  1  'x, y, z'
loop_
 _atom_site_type_symbol
 _atom_site_label
 _atom_site_symmetry_multiplicity
 _atom_site_fract_x
 _atom_site_fract_y
 _atom_site_fract_z
 _atom_site_occupancy
  Ag  Ag0  1  0.75000000  0.75000000  0.49287000  1.0
  Ag  Ag1  1  0.75000000  0.25000000  0.49287000  1.0
  Ag  Ag2  1  0.79305200  0.00000000  0.26075500  1.0
  Ag  Ag3  1  0.20694800  0.00000000  0.26075500  1.0
  Ag  Ag4  1  0.50000000  0.23403100  0.16398200  1.0
  Ag  Ag5  1  0.50000000  0.76596900  0.16398200  1.0
  Ag  Ag6  1  0.75000000  0.25000000  0.99287000  1.0
  Ag  Ag7  1  0.75000000  0.75000000  0.99287000  1.0
  Ag  Ag8  1  0.79305200  0.50000000  0.76075500  1.0
  Ag  Ag9  1  0.20694800  0.50000000  0.76075500  1.0
  Ag  Ag10  1  0.50000000  0.73403100  0.66398200  1.0
  Ag  Ag11  1  0.50000000  0.26596900  0.66398200  1.0
  Ag  Ag12  1  0.25000000  0.75000000  0.99287000  1.0
  Ag  Ag13  1  0.25000000  0.25000000  0.99287000  1.0
  Ag  Ag14  1  0.29305200  0.00000000  0.76075500  1.0
  Ag  Ag15  1  0.70694800  0.00000000  0.76075500  1.0
  Ag  Ag16  1  0.00000000  0.23403100  0.66398200  1.0
  Ag  Ag17  1  0.00000000  0.76596900  0.66398200  1.0
  Ag  Ag18  1  0.25000000  0.25000000  0.49287000  1.0
  Ag  Ag19  1  0.25000000  0.75000000  0.49287000  1.0
  Ag  Ag20  1  0.29305200  0.50000000  0.26075500  1.0
  Ag  Ag21  1  0.70694800  0.50000000  0.26075500  1.0
  Ag  Ag22  1  0.00000000  0.73403100  0.16398200  1.0
  Ag  Ag23  1  0.00000000  0.26596900  0.16398200  1.0
  S  S24  1  0.75000000  0.25000000  0.24541200  1.0
  S  S25  1  0.75000000  0.75000000  0.24541200  1.0
  S  S26  1  0.75000000  0.75000000  0.74541200  1.0
  S  S27  1  0.75000000  0.25000000  0.74541200  1.0
  S  S28  1  0.25000000  0.25000000  0.74541200  1.0
  S  S29  1  0.25000000  0.75000000  0.74541200  1.0
  S  S30  1  0.25000000  0.75000000  0.24541200  1.0
  S  S31  1  0.25000000  0.25000000  0.24541200  1.0
  I  I32  1  0.50000000  0.00000000  0.49516900  1.0
  I  I33  1  0.50000000  0.50000000  0.99516900  1.0
  I  I34  1  0.00000000  0.00000000  0.99516900  1.0
  I  I35  1  0.00000000  0.50000000  0.49516900  1.0
  Br  Br36  1  0.00000000  0.00000000  0.48679450  1.0
  Br  Br37  1  0.00000000  0.50000000  0.98679450  1.0
  Br  Br38  1  0.50000000  0.00000000  0.98679450  1.0
  Br  Br39  1  0.50000000  0.50000000  0.48679450  1.0
