# generated using pymatgen
data_Ag2Se
_symmetry_space_group_name_H-M   'P 1'
_cell_length_a   5.26546179
_cell_length_b   6.79806542
_cell_length_c   6.88321134
_cell_angle_alpha   90.00000000
_cell_angle_beta   90.00000000
_cell_angle_gamma   90.00000000
_symmetry_Int_Tables_number   1
_chemical_formula_structural   Ag2Se
_chemical_formula_sum   'Ag8 Se4'
_cell_volume   246.38423133
_cell_formula_units_Z   4
loop_
 _symmetry_equiv_pos_site_id
 _symmetry_equiv_pos_as_xyz
  1  'x, y, z'
loop_
 _atom_site_type_symbol
 _atom_site_label
 _atom_site_symmetry_multiplicity
 _atom_site_fract_x
 _atom_site_fract_y
 _atom_site_fract_z
 _atom_site_occupancy
  Ag  Ag0  1  0.11784009  0.28718107  0.41583355  1.0
  Ag  Ag1  1  0.39744740  0.90719009  0.30340185  1.0
  Ag  Ag2  1  0.60255260  0.40719009  0.19659815  1.0
  Ag  Ag3  1  0.88215991  0.78718107  0.08416645  1.0
  Ag  Ag4  1  0.61784009  0.21281893  0.58416645  1.0
  Ag  Ag5  1  0.89744740  0.59280991  0.69659815  1.0
  Ag  Ag6  1  0.10255260  0.09280991  0.80340185  1.0
  Ag  Ag7  1  0.38215991  0.71281893  0.91583355  1.0
  Se  Se8  1  0.57020583  0.06677328  0.96472342  1.0
  Se  Se9  1  0.42979417  0.56677328  0.53527658  1.0
  Se  Se10  1  0.07020583  0.43322672  0.03527658  1.0
  Se  Se11  1  0.92979417  0.93322672  0.46472342  1.0
