# generated using pymatgen
data_AgAsBr4
_symmetry_space_group_name_H-M   'P 1'
_cell_length_a   7.80271493
_cell_length_b   8.19925360
_cell_length_c   12.32190015
_cell_angle_alpha   90.00000000
_cell_angle_beta   90.00000000
_cell_angle_gamma   90.00000000
_symmetry_Int_Tables_number   1
_chemical_formula_structural   AgAsBr4
_chemical_formula_sum   'Ag4 As4 Br16'
_cell_volume   788.31128690
_cell_formula_units_Z   4
loop_
 _symmetry_equiv_pos_site_id
 _symmetry_equiv_pos_as_xyz
  1  'x, y, z'
loop_
 _atom_site_type_symbol
 _atom_site_label
 _atom_site_symmetry_multiplicity
 _atom_site_fract_x
 _atom_site_fract_y
 _atom_site_fract_z
 _atom_site_occupancy
  Ag  Ag0  1  0.00000000  0.00000000  0.00000000  1.0
  Ag  Ag1  1  0.00000000  0.50000000  0.00000000  1.0
  Ag  Ag2  1  0.50000000  0.50000000  0.50000000  1.0
  Ag  Ag3  1  0.50000000  0.00000000  0.50000000  1.0
  As  As4  1  0.75000000  0.75000000  0.25000000  1.0
  As  As5  1  0.25000000  0.75000000  0.25000000  1.0
  As  As6  1  0.25000000  0.25000000  0.75000000  1.0
  As  As7  1  0.75000000  0.25000000  0.75000000  1.0
  Br  Br8  1  0.25463300  0.75000000  0.46641800  1.0
  Br  Br9  1  0.74536700  0.75000000  0.46641800  1.0
  Br  Br10  1  0.50000000  0.98007200  0.24449500  1.0
  Br  Br11  1  0.50000000  0.51992800  0.24449500  1.0
  Br  Br12  1  0.00000000  0.98007200  0.25550500  1.0
  Br  Br13  1  0.75463300  0.75000000  0.03358200  1.0
  Br  Br14  1  0.00000000  0.51992800  0.25550500  1.0
  Br  Br15  1  0.24536700  0.75000000  0.03358200  1.0
  Br  Br16  1  0.75463300  0.25000000  0.96641800  1.0
  Br  Br17  1  0.24536700  0.25000000  0.96641800  1.0
  Br  Br18  1  0.00000000  0.48007200  0.74449500  1.0
  Br  Br19  1  0.00000000  0.01992800  0.74449500  1.0
  Br  Br20  1  0.50000000  0.48007200  0.75550500  1.0
  Br  Br21  1  0.25463300  0.25000000  0.53358200  1.0
  Br  Br22  1  0.50000000  0.01992800  0.75550500  1.0
  Br  Br23  1  0.74536700  0.25000000  0.53358200  1.0
