# generated using pymatgen
data_Ag2PbO2
_symmetry_space_group_name_H-M   'P 1'
_cell_length_a   8.66236753
_cell_length_b   8.85487454
_cell_length_c   6.08605759
_cell_angle_alpha   90.00000000
_cell_angle_beta   130.98211889
_cell_angle_gamma   90.00000000
_symmetry_Int_Tables_number   1
_chemical_formula_structural   Ag2PbO2
_chemical_formula_sum   'Ag8 Pb4 O8'
_cell_volume   352.41365030
_cell_formula_units_Z   4
loop_
 _symmetry_equiv_pos_site_id
 _symmetry_equiv_pos_as_xyz
  1  'x, y, z'
loop_
 _atom_site_type_symbol
 _atom_site_label
 _atom_site_symmetry_multiplicity
 _atom_site_fract_x
 _atom_site_fract_y
 _atom_site_fract_z
 _atom_site_occupancy
  Ag  Ag0  1  0.50000000  0.00000000  0.00000000  1.0
  Ag  Ag1  1  0.25000000  0.25000000  0.00000000  1.0
  Ag  Ag2  1  0.50000000  0.00000000  0.50000000  1.0
  Ag  Ag3  1  0.25000000  0.75000000  0.50000000  1.0
  Ag  Ag4  1  0.00000000  0.50000000  0.00000000  1.0
  Ag  Ag5  1  0.75000000  0.75000000  0.00000000  1.0
  Ag  Ag6  1  0.00000000  0.50000000  0.50000000  1.0
  Ag  Ag7  1  0.75000000  0.25000000  0.50000000  1.0
  Pb  Pb8  1  0.50000000  0.37984728  0.75000000  1.0
  Pb  Pb9  1  0.50000000  0.62015272  0.25000000  1.0
  Pb  Pb10  1  0.00000000  0.87984728  0.75000000  1.0
  Pb  Pb11  1  0.00000000  0.12015272  0.25000000  1.0
  O  O12  1  0.80809263  0.05499360  0.73941610  1.0
  O  O13  1  0.19190737  0.94500640  0.26058390  1.0
  O  O14  1  0.19190737  0.05499360  0.76058390  1.0
  O  O15  1  0.80809263  0.94500640  0.23941610  1.0
  O  O16  1  0.30809263  0.55499360  0.73941610  1.0
  O  O17  1  0.69190737  0.44500640  0.26058390  1.0
  O  O18  1  0.69190737  0.55499360  0.76058390  1.0
  O  O19  1  0.30809263  0.44500640  0.23941610  1.0
