# generated using pymatgen
data_Ag2Mo2O7
_symmetry_space_group_name_H-M   'P 1'
_cell_length_a   6.06984624
_cell_length_b   7.49986464
_cell_length_c   7.67140947
_cell_angle_alpha   111.59949900
_cell_angle_beta   92.61794675
_cell_angle_gamma   113.09048761
_symmetry_Int_Tables_number   1
_chemical_formula_structural   Ag2Mo2O7
_chemical_formula_sum   'Ag4 Mo4 O14'
_cell_volume   291.22309073
_cell_formula_units_Z   2
loop_
 _symmetry_equiv_pos_site_id
 _symmetry_equiv_pos_as_xyz
  1  'x, y, z'
loop_
 _atom_site_type_symbol
 _atom_site_label
 _atom_site_symmetry_multiplicity
 _atom_site_fract_x
 _atom_site_fract_y
 _atom_site_fract_z
 _atom_site_occupancy
  Ag  Ag0  1  0.77398061  0.27462719  0.95711551  1.0
  Ag  Ag1  1  0.22601939  0.72537281  0.04288449  1.0
  Ag  Ag2  1  0.20850565  0.21878940  0.72755606  1.0
  Ag  Ag3  1  0.79149435  0.78121060  0.27244394  1.0
  Mo  Mo4  1  0.75850979  0.26914355  0.45566049  1.0
  Mo  Mo5  1  0.24149021  0.73085645  0.54433951  1.0
  Mo  Mo6  1  0.32805661  0.32237075  0.24760728  1.0
  Mo  Mo7  1  0.67194339  0.67762925  0.75239272  1.0
  O  O8  1  0.74880953  0.60997032  0.93405420  1.0
  O  O9  1  0.25119047  0.39002968  0.06594580  1.0
  O  O10  1  0.92531057  0.62256058  0.60771539  1.0
  O  O11  1  0.07468943  0.37743942  0.39228461  1.0
  O  O12  1  0.35755026  0.64281399  0.76889733  1.0
  O  O13  1  0.64244974  0.35718601  0.23110267  1.0
  O  O14  1  0.50627801  0.66719575  0.46878985  1.0
  O  O15  1  0.49372199  0.33280425  0.53121015  1.0
  O  O16  1  0.62536083  0.00645198  0.28353559  1.0
  O  O17  1  0.37463917  0.99354802  0.71646441  1.0
  O  O18  1  0.16623171  0.05054001  0.16372352  1.0
  O  O19  1  0.83376829  0.94945999  0.83627648  1.0
  O  O20  1  0.86158275  0.25110699  0.66190231  1.0
  O  O21  1  0.13841725  0.74889301  0.33809769  1.0
