# generated using pymatgen
data_Ag2S
_symmetry_space_group_name_H-M   'P 1'
_cell_length_a   4.02209646
_cell_length_b   5.82543372
_cell_length_c   5.82007671
_cell_angle_alpha   90.00000000
_cell_angle_beta   93.55485913
_cell_angle_gamma   90.00000000
_symmetry_Int_Tables_number   1
_chemical_formula_structural   Ag2S
_chemical_formula_sum   'Ag4 S2'
_cell_volume   136.10466787
_cell_formula_units_Z   2
loop_
 _symmetry_equiv_pos_site_id
 _symmetry_equiv_pos_as_xyz
  1  'x, y, z'
loop_
 _atom_site_type_symbol
 _atom_site_label
 _atom_site_symmetry_multiplicity
 _atom_site_fract_x
 _atom_site_fract_y
 _atom_site_fract_z
 _atom_site_occupancy
  Ag  Ag0  1  0.00361664  0.00066430  0.00235255  1.0
  Ag  Ag1  1  0.00706567  0.49877035  0.49834966  1.0
  Ag  Ag2  1  0.99293433  0.99877035  0.50165034  1.0
  Ag  Ag3  1  0.99638336  0.50066430  0.99764745  1.0
  S  S4  1  0.32432683  0.75056536  0.76179047  1.0
  S  S5  1  0.67567317  0.25056536  0.23820953  1.0
