# generated using pymatgen
data_Ag2PdCl4
_symmetry_space_group_name_H-M   'P 1'
_cell_length_a   8.16486495
_cell_length_b   10.01009884
_cell_length_c   8.10102674
_cell_angle_alpha   90.00000000
_cell_angle_beta   90.00000000
_cell_angle_gamma   90.00000000
_symmetry_Int_Tables_number   1
_chemical_formula_structural   Ag2PdCl4
_chemical_formula_sum   'Ag8 Pd4 Cl16'
_cell_volume   662.10586843
_cell_formula_units_Z   4
loop_
 _symmetry_equiv_pos_site_id
 _symmetry_equiv_pos_as_xyz
  1  'x, y, z'
loop_
 _atom_site_type_symbol
 _atom_site_label
 _atom_site_symmetry_multiplicity
 _atom_site_fract_x
 _atom_site_fract_y
 _atom_site_fract_z
 _atom_site_occupancy
  Ag  Ag0  1  0.72074641  0.75000000  0.25000000  1.0
  Ag  Ag1  1  0.27925359  0.75000000  0.75000000  1.0
  Ag  Ag2  1  0.72074641  0.25000000  0.25000000  1.0
  Ag  Ag3  1  0.27925359  0.25000000  0.75000000  1.0
  Ag  Ag4  1  0.22074641  0.25000000  0.25000000  1.0
  Ag  Ag5  1  0.77925359  0.25000000  0.75000000  1.0
  Ag  Ag6  1  0.22074641  0.75000000  0.25000000  1.0
  Ag  Ag7  1  0.77925359  0.75000000  0.75000000  1.0
  Pd  Pd8  1  0.00000000  0.00000000  0.00000000  1.0
  Pd  Pd9  1  0.50000000  0.00000000  0.50000000  1.0
  Pd  Pd10  1  0.50000000  0.50000000  0.00000000  1.0
  Pd  Pd11  1  0.00000000  0.50000000  0.50000000  1.0
  Cl  Cl12  1  0.80490572  0.00000000  0.20748094  1.0
  Cl  Cl13  1  0.69509428  0.00000000  0.70748094  1.0
  Cl  Cl14  1  0.30490572  0.00000000  0.29251906  1.0
  Cl  Cl15  1  0.19509428  0.00000000  0.79251906  1.0
  Cl  Cl16  1  0.50000000  0.23164711  0.50000000  1.0
  Cl  Cl17  1  0.50000000  0.26835289  0.00000000  1.0
  Cl  Cl18  1  0.50000000  0.73164711  0.00000000  1.0
  Cl  Cl19  1  0.50000000  0.76835289  0.50000000  1.0
  Cl  Cl20  1  0.30490572  0.50000000  0.20748094  1.0
  Cl  Cl21  1  0.19509428  0.50000000  0.70748094  1.0
  Cl  Cl22  1  0.80490572  0.50000000  0.29251906  1.0
  Cl  Cl23  1  0.69509428  0.50000000  0.79251906  1.0
  Cl  Cl24  1  0.00000000  0.73164711  0.50000000  1.0
  Cl  Cl25  1  0.00000000  0.76835289  0.00000000  1.0
  Cl  Cl26  1  0.00000000  0.23164711  0.00000000  1.0
  Cl  Cl27  1  0.00000000  0.26835289  0.50000000  1.0
