# generated using pymatgen
data_AgAsF6
_symmetry_space_group_name_H-M   'P 1'
_cell_length_a   8.31160705
_cell_length_b   8.31160705
_cell_length_c   8.31160705
_cell_angle_alpha   90.00000000
_cell_angle_beta   90.00000000
_cell_angle_gamma   90.00000000
_symmetry_Int_Tables_number   1
_chemical_formula_structural   AgAsF6
_chemical_formula_sum   'Ag4 As4 F24'
_cell_volume   574.18918521
_cell_formula_units_Z   4
loop_
 _symmetry_equiv_pos_site_id
 _symmetry_equiv_pos_as_xyz
  1  'x, y, z'
loop_
 _atom_site_type_symbol
 _atom_site_label
 _atom_site_symmetry_multiplicity
 _atom_site_fract_x
 _atom_site_fract_y
 _atom_site_fract_z
 _atom_site_occupancy
  Ag  Ag0  1  0.50000000  0.00000000  0.00000000  1.0
  Ag  Ag1  1  0.50000000  0.50000000  0.50000000  1.0
  Ag  Ag2  1  0.00000000  0.00000000  0.50000000  1.0
  Ag  Ag3  1  0.00000000  0.50000000  0.00000000  1.0
  As  As4  1  0.00000000  0.00000000  0.00000000  1.0
  As  As5  1  0.00000000  0.50000000  0.50000000  1.0
  As  As6  1  0.50000000  0.00000000  0.50000000  1.0
  As  As7  1  0.50000000  0.50000000  0.00000000  1.0
  F  F8  1  0.50000000  0.00000000  0.71035162  1.0
  F  F9  1  0.21035162  0.00000000  0.00000000  1.0
  F  F10  1  0.50000000  0.71035162  0.00000000  1.0
  F  F11  1  0.50000000  0.28964838  0.00000000  1.0
  F  F12  1  0.78964838  0.00000000  0.00000000  1.0
  F  F13  1  0.00000000  0.00000000  0.78964838  1.0
  F  F14  1  0.50000000  0.50000000  0.21035162  1.0
  F  F15  1  0.21035162  0.50000000  0.50000000  1.0
  F  F16  1  0.50000000  0.21035162  0.50000000  1.0
  F  F17  1  0.50000000  0.78964838  0.50000000  1.0
  F  F18  1  0.78964838  0.50000000  0.50000000  1.0
  F  F19  1  0.00000000  0.50000000  0.28964838  1.0
  F  F20  1  0.00000000  0.00000000  0.21035162  1.0
  F  F21  1  0.71035162  0.00000000  0.50000000  1.0
  F  F22  1  0.00000000  0.71035162  0.50000000  1.0
  F  F23  1  0.00000000  0.28964838  0.50000000  1.0
  F  F24  1  0.28964838  0.00000000  0.50000000  1.0
  F  F25  1  0.50000000  0.00000000  0.28964838  1.0
  F  F26  1  0.00000000  0.50000000  0.71035162  1.0
  F  F27  1  0.71035162  0.50000000  0.00000000  1.0
  F  F28  1  0.00000000  0.21035162  0.00000000  1.0
  F  F29  1  0.00000000  0.78964838  0.00000000  1.0
  F  F30  1  0.28964838  0.50000000  0.00000000  1.0
  F  F31  1  0.50000000  0.50000000  0.78964838  1.0
