# generated using pymatgen
data_Ag2S
_symmetry_space_group_name_H-M   'P 1'
_cell_length_a   4.21613425
_cell_length_b   5.74476330
_cell_length_c   5.70236726
_cell_angle_alpha   90.00000000
_cell_angle_beta   102.07953237
_cell_angle_gamma   90.00000000
_symmetry_Int_Tables_number   1
_chemical_formula_structural   Ag2S
_chemical_formula_sum   'Ag4 S2'
_cell_volume   135.05714753
_cell_formula_units_Z   2
loop_
 _symmetry_equiv_pos_site_id
 _symmetry_equiv_pos_as_xyz
  1  'x, y, z'
loop_
 _atom_site_type_symbol
 _atom_site_label
 _atom_site_symmetry_multiplicity
 _atom_site_fract_x
 _atom_site_fract_y
 _atom_site_fract_z
 _atom_site_occupancy
  Ag  Ag0  1  0.08206626  0.05257255  0.99534969  1.0
  Ag  Ag1  1  0.98945003  0.46615169  0.51920203  1.0
  Ag  Ag2  1  0.01054997  0.96615169  0.48079797  1.0
  Ag  Ag3  1  0.91793374  0.55257255  0.00465031  1.0
  S  S4  1  0.31279744  0.73127577  0.79550313  1.0
  S  S5  1  0.68720256  0.23127577  0.20449687  1.0
