# generated using pymatgen
data_Ag2Te
_symmetry_space_group_name_H-M   'P 1'
_cell_length_a   5.04760857
_cell_length_b   7.48729739
_cell_length_c   7.58508672
_cell_angle_alpha   90.00000000
_cell_angle_beta   90.00000000
_cell_angle_gamma   90.00000000
_symmetry_Int_Tables_number   1
_chemical_formula_structural   Ag2Te
_chemical_formula_sum   'Ag8 Te4'
_cell_volume   286.66277639
_cell_formula_units_Z   4
loop_
 _symmetry_equiv_pos_site_id
 _symmetry_equiv_pos_as_xyz
  1  'x, y, z'
loop_
 _atom_site_type_symbol
 _atom_site_label
 _atom_site_symmetry_multiplicity
 _atom_site_fract_x
 _atom_site_fract_y
 _atom_site_fract_z
 _atom_site_occupancy
  Ag  Ag0  1  0.50000000  0.35804278  0.35767174  1.0
  Ag  Ag1  1  0.50000000  0.14195722  0.85767174  1.0
  Ag  Ag2  1  0.50000000  0.85804278  0.14232826  1.0
  Ag  Ag3  1  0.50000000  0.64195722  0.64232826  1.0
  Ag  Ag4  1  0.00000000  0.85804278  0.35767174  1.0
  Ag  Ag5  1  0.00000000  0.64195722  0.85767174  1.0
  Ag  Ag6  1  0.00000000  0.35804278  0.14232826  1.0
  Ag  Ag7  1  0.00000000  0.14195722  0.64232826  1.0
  Te  Te8  1  0.00000000  0.00000000  0.00000000  1.0
  Te  Te9  1  0.50000000  0.00000000  0.50000000  1.0
  Te  Te10  1  0.50000000  0.50000000  0.00000000  1.0
  Te  Te11  1  0.00000000  0.50000000  0.50000000  1.0
