# generated using pymatgen
data_Ag3AuS2
_symmetry_space_group_name_H-M   'P 1'
_cell_length_a   7.91111384
_cell_length_b   7.91111384
_cell_length_c   8.42573889
_cell_angle_alpha   90.00000000
_cell_angle_beta   90.00000000
_cell_angle_gamma   120.00000000
_symmetry_Int_Tables_number   1
_chemical_formula_structural   Ag3AuS2
_chemical_formula_sum   'Ag9 Au3 S6'
_cell_volume   456.68200186
_cell_formula_units_Z   3
loop_
 _symmetry_equiv_pos_site_id
 _symmetry_equiv_pos_as_xyz
  1  'x, y, z'
loop_
 _atom_site_type_symbol
 _atom_site_label
 _atom_site_symmetry_multiplicity
 _atom_site_fract_x
 _atom_site_fract_y
 _atom_site_fract_z
 _atom_site_occupancy
  Ag  Ag0  1  0.83333333  0.16666667  0.16666667  1.0
  Ag  Ag1  1  0.83333333  0.66666667  0.16666667  1.0
  Ag  Ag2  1  0.33333333  0.16666667  0.16666667  1.0
  Ag  Ag3  1  0.50000000  0.50000000  0.50000000  1.0
  Ag  Ag4  1  0.50000000  0.00000000  0.50000000  1.0
  Ag  Ag5  1  0.00000000  0.50000000  0.50000000  1.0
  Ag  Ag6  1  0.16666667  0.83333333  0.83333333  1.0
  Ag  Ag7  1  0.16666667  0.33333333  0.83333333  1.0
  Ag  Ag8  1  0.66666667  0.83333333  0.83333333  1.0
  Au  Au9  1  0.00000000  0.00000000  0.50000000  1.0
  Au  Au10  1  0.66666667  0.33333333  0.83333333  1.0
  Au  Au11  1  0.33333333  0.66666667  0.16666667  1.0
  S  S12  1  0.00000000  0.00000000  0.77080212  1.0
  S  S13  1  0.00000000  0.00000000  0.22919788  1.0
  S  S14  1  0.66666667  0.33333333  0.10413545  1.0
  S  S15  1  0.66666667  0.33333333  0.56253121  1.0
  S  S16  1  0.33333333  0.66666667  0.43746879  1.0
  S  S17  1  0.33333333  0.66666667  0.89586455  1.0
