# generated using pymatgen
data_Ag2S
_symmetry_space_group_name_H-M   'P 1'
_cell_length_a   7.02291314
_cell_length_b   4.72254074
_cell_length_c   7.43416843
_cell_angle_alpha   90.00000000
_cell_angle_beta   90.10914261
_cell_angle_gamma   90.00000000
_symmetry_Int_Tables_number   1
_chemical_formula_structural   Ag2S
_chemical_formula_sum   'Ag8 S4'
_cell_volume   246.56113387
_cell_formula_units_Z   4
loop_
 _symmetry_equiv_pos_site_id
 _symmetry_equiv_pos_as_xyz
  1  'x, y, z'
loop_
 _atom_site_type_symbol
 _atom_site_label
 _atom_site_symmetry_multiplicity
 _atom_site_fract_x
 _atom_site_fract_y
 _atom_site_fract_z
 _atom_site_occupancy
  Ag  Ag0  1  0.99958709  0.00000000  0.50105546  1.0
  Ag  Ag1  1  0.60213227  0.00000000  0.25128160  1.0
  Ag  Ag2  1  0.39492302  0.00000000  0.74886430  1.0
  Ag  Ag3  1  0.99733787  0.00000000  0.00095647  1.0
  Ag  Ag4  1  0.49958709  0.50000000  0.50105546  1.0
  Ag  Ag5  1  0.10213227  0.50000000  0.25128160  1.0
  Ag  Ag6  1  0.89492302  0.50000000  0.74886430  1.0
  Ag  Ag7  1  0.49733787  0.50000000  0.00095647  1.0
  S  S8  1  0.77947132  0.00000000  0.75004952  1.0
  S  S9  1  0.21748943  0.00000000  0.25076466  1.0
  S  S10  1  0.27947132  0.50000000  0.75004952  1.0
  S  S11  1  0.71748943  0.50000000  0.25076466  1.0
