# generated using pymatgen
data_Ag3(PO4)2
_symmetry_space_group_name_H-M   'P 1'
_cell_length_a   7.66671329
_cell_length_b   7.66671329
_cell_length_c   11.11207581
_cell_angle_alpha   90.00000000
_cell_angle_beta   90.00000000
_cell_angle_gamma   120.00000000
_symmetry_Int_Tables_number   1
_chemical_formula_structural   Ag3(PO4)2
_chemical_formula_sum   'Ag9 P6 O24'
_cell_volume   565.64541615
_cell_formula_units_Z   3
loop_
 _symmetry_equiv_pos_site_id
 _symmetry_equiv_pos_as_xyz
  1  'x, y, z'
loop_
 _atom_site_type_symbol
 _atom_site_label
 _atom_site_symmetry_multiplicity
 _atom_site_fract_x
 _atom_site_fract_y
 _atom_site_fract_z
 _atom_site_occupancy
  Ag  Ag0  1  0.73000468  0.00564870  0.25289930  1.0
  Ag  Ag1  1  0.27564402  0.26999532  0.25289930  1.0
  Ag  Ag2  1  0.99435130  0.72435598  0.25289930  1.0
  Ag  Ag3  1  0.39667135  0.33898203  0.58623263  1.0
  Ag  Ag4  1  0.94231069  0.60332865  0.58623263  1.0
  Ag  Ag5  1  0.66101797  0.05768931  0.58623263  1.0
  Ag  Ag6  1  0.06333801  0.67231537  0.91956597  1.0
  Ag  Ag7  1  0.60897735  0.93666199  0.91956597  1.0
  Ag  Ag8  1  0.32768463  0.39102265  0.91956597  1.0
  P  P9  1  0.33333333  0.66666667  0.68923736  1.0
  P  P10  1  0.33333333  0.66666667  0.14492066  1.0
  P  P11  1  0.00000000  0.00000000  0.02257069  1.0
  P  P12  1  0.00000000  0.00000000  0.47825399  1.0
  P  P13  1  0.66666667  0.33333333  0.35590402  1.0
  P  P14  1  0.66666667  0.33333333  0.81158732  1.0
  O  O15  1  0.33333333  0.66666667  0.55524368  1.0
  O  O16  1  0.79697389  0.97088731  0.07202438  1.0
  O  O17  1  0.42459872  0.88545918  0.18478532  1.0
  O  O18  1  0.46086047  0.57540128  0.18478532  1.0
  O  O19  1  0.11454082  0.53913953  0.18478532  1.0
  O  O20  1  0.33333333  0.66666667  0.99813597  1.0
  O  O21  1  0.02911269  0.82608658  0.07202438  1.0
  O  O22  1  0.17391342  0.20302611  0.07202438  1.0
  O  O23  1  0.00000000  0.00000000  0.88857701  1.0
  O  O24  1  0.46364056  0.30422064  0.40535771  1.0
  O  O25  1  0.09126538  0.21879252  0.51811866  1.0
  O  O26  1  0.12752713  0.90873462  0.51811866  1.0
  O  O27  1  0.78120748  0.87247287  0.51811866  1.0
  O  O28  1  0.00000000  0.00000000  0.33146930  1.0
  O  O29  1  0.69577936  0.15941991  0.40535771  1.0
  O  O30  1  0.84058009  0.53635944  0.40535771  1.0
  O  O31  1  0.66666667  0.33333333  0.22191034  1.0
  O  O32  1  0.13030722  0.63755398  0.73869105  1.0
  O  O33  1  0.75793205  0.55212585  0.85145199  1.0
  O  O34  1  0.79419380  0.24206795  0.85145199  1.0
  O  O35  1  0.44787415  0.20580620  0.85145199  1.0
  O  O36  1  0.66666667  0.33333333  0.66480263  1.0
  O  O37  1  0.36244602  0.49275325  0.73869105  1.0
  O  O38  1  0.50724675  0.86969278  0.73869105  1.0
