# generated using pymatgen
data_Ag7NO11
_symmetry_space_group_name_H-M   'P 1'
_cell_length_a   9.61117697
_cell_length_b   9.97590267
_cell_length_c   10.06284246
_cell_angle_alpha   90.00000000
_cell_angle_beta   90.00000000
_cell_angle_gamma   90.00000000
_symmetry_Int_Tables_number   1
_chemical_formula_structural   Ag7NO11
_chemical_formula_sum   'Ag28 N4 O44'
_cell_volume   964.82700547
_cell_formula_units_Z   4
loop_
 _symmetry_equiv_pos_site_id
 _symmetry_equiv_pos_as_xyz
  1  'x, y, z'
loop_
 _atom_site_type_symbol
 _atom_site_label
 _atom_site_symmetry_multiplicity
 _atom_site_fract_x
 _atom_site_fract_y
 _atom_site_fract_z
 _atom_site_occupancy
  Ag  Ag0  1  0.74659081  0.00000000  0.24860986  1.0
  Ag  Ag1  1  0.50000000  0.74677824  0.24315937  1.0
  Ag  Ag2  1  0.50000000  0.25322176  0.24315937  1.0
  Ag  Ag3  1  0.25340919  0.00000000  0.24860986  1.0
  Ag  Ag4  1  0.75000000  0.25000000  0.49688079  1.0
  Ag  Ag5  1  0.00000000  0.00000000  0.49535303  1.0
  Ag  Ag6  1  0.75000000  0.75000000  0.49688079  1.0
  Ag  Ag7  1  0.74659081  0.50000000  0.74860986  1.0
  Ag  Ag8  1  0.50000000  0.24677824  0.74315937  1.0
  Ag  Ag9  1  0.50000000  0.75322176  0.74315937  1.0
  Ag  Ag10  1  0.25340919  0.50000000  0.74860986  1.0
  Ag  Ag11  1  0.75000000  0.75000000  0.99688079  1.0
  Ag  Ag12  1  0.00000000  0.50000000  0.99535303  1.0
  Ag  Ag13  1  0.75000000  0.25000000  0.99688079  1.0
  Ag  Ag14  1  0.24659081  0.00000000  0.74860986  1.0
  Ag  Ag15  1  0.00000000  0.74677824  0.74315937  1.0
  Ag  Ag16  1  0.00000000  0.25322176  0.74315937  1.0
  Ag  Ag17  1  0.75340919  0.00000000  0.74860986  1.0
  Ag  Ag18  1  0.25000000  0.25000000  0.99688079  1.0
  Ag  Ag19  1  0.50000000  0.00000000  0.99535303  1.0
  Ag  Ag20  1  0.25000000  0.75000000  0.99688079  1.0
  Ag  Ag21  1  0.24659081  0.50000000  0.24860986  1.0
  Ag  Ag22  1  0.00000000  0.24677824  0.24315937  1.0
  Ag  Ag23  1  0.00000000  0.75322176  0.24315937  1.0
  Ag  Ag24  1  0.75340919  0.50000000  0.24860986  1.0
  Ag  Ag25  1  0.25000000  0.75000000  0.49688079  1.0
  Ag  Ag26  1  0.50000000  0.50000000  0.49535303  1.0
  Ag  Ag27  1  0.25000000  0.25000000  0.49688079  1.0
  N  N28  1  0.00000000  0.00000000  0.01527842  1.0
  N  N29  1  0.00000000  0.50000000  0.51527842  1.0
  N  N30  1  0.50000000  0.00000000  0.51527842  1.0
  N  N31  1  0.50000000  0.50000000  0.01527842  1.0
  O  O32  1  0.00000000  0.39019497  0.45402285  1.0
  O  O33  1  0.35740093  0.13902222  0.13503933  1.0
  O  O34  1  0.64259907  0.13902222  0.13503933  1.0
  O  O35  1  0.35740093  0.86097778  0.13503933  1.0
  O  O36  1  0.85517323  0.13883983  0.35826190  1.0
  O  O37  1  0.64259907  0.86097778  0.13503933  1.0
  O  O38  1  0.14482677  0.13883983  0.35826190  1.0
  O  O39  1  0.85517323  0.86116017  0.35826190  1.0
  O  O40  1  0.14482677  0.86116017  0.35826190  1.0
  O  O41  1  0.00000000  0.00000000  0.14078527  1.0
  O  O42  1  0.00000000  0.60980503  0.45402285  1.0
  O  O43  1  0.00000000  0.89019497  0.95402285  1.0
  O  O44  1  0.35740093  0.63902222  0.63503933  1.0
  O  O45  1  0.64259907  0.63902222  0.63503933  1.0
  O  O46  1  0.35740093  0.36097778  0.63503933  1.0
  O  O47  1  0.85517323  0.63883983  0.85826190  1.0
  O  O48  1  0.64259907  0.36097778  0.63503933  1.0
  O  O49  1  0.14482677  0.63883983  0.85826190  1.0
  O  O50  1  0.85517323  0.36116017  0.85826190  1.0
  O  O51  1  0.14482677  0.36116017  0.85826190  1.0
  O  O52  1  0.00000000  0.50000000  0.64078527  1.0
  O  O53  1  0.00000000  0.10980503  0.95402285  1.0
  O  O54  1  0.50000000  0.39019497  0.95402285  1.0
  O  O55  1  0.85740093  0.13902222  0.63503933  1.0
  O  O56  1  0.14259907  0.13902222  0.63503933  1.0
  O  O57  1  0.85740093  0.86097778  0.63503933  1.0
  O  O58  1  0.35517323  0.13883983  0.85826190  1.0
  O  O59  1  0.14259907  0.86097778  0.63503933  1.0
  O  O60  1  0.64482677  0.13883983  0.85826190  1.0
  O  O61  1  0.35517323  0.86116017  0.85826190  1.0
  O  O62  1  0.64482677  0.86116017  0.85826190  1.0
  O  O63  1  0.50000000  0.00000000  0.64078527  1.0
  O  O64  1  0.50000000  0.60980503  0.95402285  1.0
  O  O65  1  0.50000000  0.89019497  0.45402285  1.0
  O  O66  1  0.85740093  0.63902222  0.13503933  1.0
  O  O67  1  0.14259907  0.63902222  0.13503933  1.0
  O  O68  1  0.85740093  0.36097778  0.13503933  1.0
  O  O69  1  0.35517323  0.63883983  0.35826190  1.0
  O  O70  1  0.14259907  0.36097778  0.13503933  1.0
  O  O71  1  0.64482677  0.63883983  0.35826190  1.0
  O  O72  1  0.35517323  0.36116017  0.35826190  1.0
  O  O73  1  0.64482677  0.36116017  0.35826190  1.0
  O  O74  1  0.50000000  0.50000000  0.14078527  1.0
  O  O75  1  0.50000000  0.10980503  0.45402285  1.0
