# generated using pymatgen
data_Ag2S
_symmetry_space_group_name_H-M   'P 1'
_cell_length_a   4.35030852
_cell_length_b   6.26664371
_cell_length_c   6.12172678
_cell_angle_alpha   90.00000000
_cell_angle_beta   133.20591973
_cell_angle_gamma   90.00000000
_symmetry_Int_Tables_number   1
_chemical_formula_structural   Ag2S
_chemical_formula_sum   'Ag4 S2'
_cell_volume   121.64540292
_cell_formula_units_Z   2
loop_
 _symmetry_equiv_pos_site_id
 _symmetry_equiv_pos_as_xyz
  1  'x, y, z'
loop_
 _atom_site_type_symbol
 _atom_site_label
 _atom_site_symmetry_multiplicity
 _atom_site_fract_x
 _atom_site_fract_y
 _atom_site_fract_z
 _atom_site_occupancy
  Ag  Ag0  1  0.68883498  0.58890750  0.43867576  1.0
  Ag  Ag1  1  0.39969224  0.06798362  0.29743627  1.0
  Ag  Ag2  1  0.68883498  0.41109250  0.93867576  1.0
  Ag  Ag3  1  0.39969224  0.93201638  0.79743627  1.0
  S  S4  1  0.03647277  0.25390736  0.45138896  1.0
  S  S5  1  0.03647277  0.74609264  0.95138896  1.0
