# generated using pymatgen
data_Ag3AsS3
_symmetry_space_group_name_H-M   'P 1'
_cell_length_a   10.69692849
_cell_length_b   10.69692849
_cell_length_c   9.18248292
_cell_angle_alpha   90.00000000
_cell_angle_beta   90.00000000
_cell_angle_gamma   120.00000000
_symmetry_Int_Tables_number   1
_chemical_formula_structural   Ag3AsS3
_chemical_formula_sum   'Ag18 As6 S18'
_cell_volume   909.93201591
_cell_formula_units_Z   6
loop_
 _symmetry_equiv_pos_site_id
 _symmetry_equiv_pos_as_xyz
  1  'x, y, z'
loop_
 _atom_site_type_symbol
 _atom_site_label
 _atom_site_symmetry_multiplicity
 _atom_site_fract_x
 _atom_site_fract_y
 _atom_site_fract_z
 _atom_site_occupancy
  Ag  Ag0  1  0.74923790  0.70773926  0.65297066  1.0
  Ag  Ag1  1  0.41590456  0.37483197  0.48630400  1.0
  Ag  Ag2  1  0.95850137  0.25076210  0.65297066  1.0
  Ag  Ag3  1  0.95892740  0.58409544  0.48630400  1.0
  Ag  Ag4  1  0.29226074  0.04149863  0.65297066  1.0
  Ag  Ag5  1  0.62516803  0.04107260  0.48630400  1.0
  Ag  Ag6  1  0.41590456  0.04107260  0.98630400  1.0
  Ag  Ag7  1  0.08257123  0.70816530  0.81963733  1.0
  Ag  Ag8  1  0.62516803  0.58409544  0.98630400  1.0
  Ag  Ag9  1  0.62559407  0.91742877  0.81963733  1.0
  Ag  Ag10  1  0.95892740  0.37483197  0.98630400  1.0
  Ag  Ag11  1  0.29183470  0.37440593  0.81963733  1.0
  Ag  Ag12  1  0.08257123  0.37440593  0.31963733  1.0
  Ag  Ag13  1  0.74923790  0.04149863  0.15297066  1.0
  Ag  Ag14  1  0.29183470  0.91742877  0.31963733  1.0
  Ag  Ag15  1  0.29226074  0.25076210  0.15297066  1.0
  Ag  Ag16  1  0.62559407  0.70816530  0.31963733  1.0
  Ag  Ag17  1  0.95850137  0.70773926  0.15297066  1.0
  As  As18  1  0.00000000  0.00000000  0.36588594  1.0
  As  As19  1  0.00000000  0.00000000  0.86588594  1.0
  As  As20  1  0.66666667  0.33333333  0.69921927  1.0
  As  As21  1  0.66666667  0.33333333  0.19921927  1.0
  As  As22  1  0.33333333  0.66666667  0.03255261  1.0
  As  As23  1  0.33333333  0.66666667  0.53255261  1.0
  S  S24  1  0.09987827  0.88393539  0.48566835  1.0
  S  S25  1  0.78405713  0.90012173  0.48566835  1.0
  S  S26  1  0.45072379  0.21726873  0.31900169  1.0
  S  S27  1  0.11606461  0.21594287  0.48566835  1.0
  S  S28  1  0.78273127  0.23345507  0.31900169  1.0
  S  S29  1  0.76654493  0.54927621  0.31900169  1.0
  S  S30  1  0.76654493  0.21726873  0.81900169  1.0
  S  S31  1  0.45072379  0.23345507  0.81900169  1.0
  S  S32  1  0.11739046  0.55060206  0.65233502  1.0
  S  S33  1  0.78273127  0.54927621  0.81900169  1.0
  S  S34  1  0.44939794  0.56678840  0.65233502  1.0
  S  S35  1  0.43321160  0.88260954  0.65233502  1.0
  S  S36  1  0.43321160  0.55060206  0.15233502  1.0
  S  S37  1  0.11739046  0.56678840  0.15233502  1.0
  S  S38  1  0.78405713  0.88393539  0.98566835  1.0
  S  S39  1  0.44939794  0.88260954  0.15233502  1.0
  S  S40  1  0.11606461  0.90012173  0.98566835  1.0
  S  S41  1  0.09987827  0.21594287  0.98566835  1.0
