# generated using pymatgen
data_Ag3SbS3
_symmetry_space_group_name_H-M   'P 1'
_cell_length_a   10.87225692
_cell_length_b   10.87225692
_cell_length_c   9.33769105
_cell_angle_alpha   90.00000000
_cell_angle_beta   90.00000000
_cell_angle_gamma   120.00000000
_symmetry_Int_Tables_number   1
_chemical_formula_structural   Ag3SbS3
_chemical_formula_sum   'Ag18 Sb6 S18'
_cell_volume   955.89358144
_cell_formula_units_Z   6
loop_
 _symmetry_equiv_pos_site_id
 _symmetry_equiv_pos_as_xyz
  1  'x, y, z'
loop_
 _atom_site_type_symbol
 _atom_site_label
 _atom_site_symmetry_multiplicity
 _atom_site_fract_x
 _atom_site_fract_y
 _atom_site_fract_z
 _atom_site_occupancy
  Ag  Ag0  1  0.75025944  0.71242938  0.29795501  1.0
  Ag  Ag1  1  0.96216994  0.24974056  0.29795501  1.0
  Ag  Ag2  1  0.29550327  0.37909605  0.46462168  1.0
  Ag  Ag3  1  0.62090395  0.91640723  0.46462168  1.0
  Ag  Ag4  1  0.28757062  0.03783006  0.29795501  1.0
  Ag  Ag5  1  0.08359277  0.70449673  0.46462168  1.0
  Ag  Ag6  1  0.41692611  0.04576271  0.63128834  1.0
  Ag  Ag7  1  0.62883661  0.58307389  0.63128834  1.0
  Ag  Ag8  1  0.96216994  0.71242938  0.79795501  1.0
  Ag  Ag9  1  0.28757062  0.24974056  0.79795501  1.0
  Ag  Ag10  1  0.95423729  0.37116339  0.63128834  1.0
  Ag  Ag11  1  0.75025944  0.03783006  0.79795501  1.0
  Ag  Ag12  1  0.08359277  0.37909605  0.96462168  1.0
  Ag  Ag13  1  0.29550327  0.91640723  0.96462168  1.0
  Ag  Ag14  1  0.62883661  0.04576271  0.13128834  1.0
  Ag  Ag15  1  0.95423729  0.58307389  0.13128834  1.0
  Ag  Ag16  1  0.62090395  0.70449673  0.96462168  1.0
  Ag  Ag17  1  0.41692611  0.37116339  0.13128834  1.0
  Sb  Sb18  1  0.00000000  0.00000000  0.49365043  1.0
  Sb  Sb19  1  0.00000000  0.00000000  0.99365043  1.0
  Sb  Sb20  1  0.66666667  0.33333333  0.82698376  1.0
  Sb  Sb21  1  0.66666667  0.33333333  0.32698376  1.0
  Sb  Sb22  1  0.33333333  0.66666667  0.16031710  1.0
  Sb  Sb23  1  0.33333333  0.66666667  0.66031710  1.0
  S  S24  1  0.78684790  0.55976841  0.46219485  1.0
  S  S25  1  0.44023159  0.22707950  0.46219485  1.0
  S  S26  1  0.12018124  0.89374616  0.62886151  1.0
  S  S27  1  0.10625384  0.22643507  0.62886151  1.0
  S  S28  1  0.77292050  0.21315210  0.46219485  1.0
  S  S29  1  0.77356493  0.87981876  0.62886151  1.0
  S  S30  1  0.45351457  0.89310174  0.79552818  1.0
  S  S31  1  0.10689826  0.56041283  0.79552818  1.0
  S  S32  1  0.78684790  0.22707950  0.96219485  1.0
  S  S33  1  0.77292050  0.55976841  0.96219485  1.0
  S  S34  1  0.43958717  0.54648543  0.79552818  1.0
  S  S35  1  0.44023159  0.21315210  0.96219485  1.0
  S  S36  1  0.12018124  0.22643507  0.12886151  1.0
  S  S37  1  0.77356493  0.89374616  0.12886151  1.0
  S  S38  1  0.45351457  0.56041283  0.29552818  1.0
  S  S39  1  0.43958717  0.89310174  0.29552818  1.0
  S  S40  1  0.10625384  0.87981876  0.12886151  1.0
  S  S41  1  0.10689826  0.54648543  0.29552818  1.0
