# generated using pymatgen
data_Ag3AsSe3
_symmetry_space_group_name_H-M   'P 1'
_cell_length_a   11.31711778
_cell_length_b   11.31711778
_cell_length_c   8.96624929
_cell_angle_alpha   90.00000000
_cell_angle_beta   90.00000000
_cell_angle_gamma   120.00000000
_symmetry_Int_Tables_number   1
_chemical_formula_structural   Ag3AsSe3
_chemical_formula_sum   'Ag18 As6 Se18'
_cell_volume   994.51906407
_cell_formula_units_Z   6
loop_
 _symmetry_equiv_pos_site_id
 _symmetry_equiv_pos_as_xyz
  1  'x, y, z'
loop_
 _atom_site_type_symbol
 _atom_site_label
 _atom_site_symmetry_multiplicity
 _atom_site_fract_x
 _atom_site_fract_y
 _atom_site_fract_z
 _atom_site_occupancy
  Ag  Ag0  1  0.26144847  0.95788195  0.71748556  1.0
  Ag  Ag1  1  0.69643347  0.73855153  0.71748556  1.0
  Ag  Ag2  1  0.04211805  0.30356653  0.71748556  1.0
  Ag  Ag3  1  0.70878472  0.07188486  0.55081889  1.0
  Ag  Ag4  1  0.36310014  0.29121528  0.55081889  1.0
  Ag  Ag5  1  0.92811514  0.63689986  0.55081889  1.0
  Ag  Ag6  1  0.92811514  0.29121528  0.05081889  1.0
  Ag  Ag7  1  0.36310014  0.07188486  0.05081889  1.0
  Ag  Ag8  1  0.70878472  0.63689986  0.05081889  1.0
  Ag  Ag9  1  0.37545139  0.40521819  0.88415222  1.0
  Ag  Ag10  1  0.02976681  0.62454861  0.88415222  1.0
  Ag  Ag11  1  0.59478181  0.97023319  0.88415222  1.0
  Ag  Ag12  1  0.59478181  0.62454861  0.38415222  1.0
  Ag  Ag13  1  0.02976681  0.40521819  0.38415222  1.0
  Ag  Ag14  1  0.37545139  0.97023319  0.38415222  1.0
  Ag  Ag15  1  0.04211805  0.73855153  0.21748556  1.0
  Ag  Ag16  1  0.69643347  0.95788195  0.21748556  1.0
  Ag  Ag17  1  0.26144847  0.30356653  0.21748556  1.0
  As  As18  1  0.00000000  0.00000000  0.50726362  1.0
  As  As19  1  0.00000000  0.00000000  0.00726362  1.0
  As  As20  1  0.66666667  0.33333333  0.84059695  1.0
  As  As21  1  0.66666667  0.33333333  0.34059695  1.0
  As  As22  1  0.33333333  0.66666667  0.17393029  1.0
  As  As23  1  0.33333333  0.66666667  0.67393029  1.0
  Se  Se24  1  0.23679246  0.45063371  0.54135924  1.0
  Se  Se25  1  0.21384125  0.76320754  0.54135924  1.0
  Se  Se26  1  0.90345913  0.11949208  0.37469257  1.0
  Se  Se27  1  0.21603296  0.09654087  0.37469257  1.0
  Se  Se28  1  0.88050792  0.78396704  0.37469257  1.0
  Se  Se29  1  0.54936629  0.78615875  0.54135924  1.0
  Se  Se30  1  0.90345913  0.78396704  0.87469257  1.0
  Se  Se31  1  0.88050792  0.09654087  0.87469257  1.0
  Se  Se32  1  0.57012579  0.45282542  0.70802591  1.0
  Se  Se33  1  0.88269962  0.42987421  0.70802591  1.0
  Se  Se34  1  0.54717458  0.11730038  0.70802591  1.0
  Se  Se35  1  0.21603296  0.11949208  0.87469257  1.0
  Se  Se36  1  0.57012579  0.11730038  0.20802591  1.0
  Se  Se37  1  0.54717458  0.42987421  0.20802591  1.0
  Se  Se38  1  0.23679246  0.78615875  0.04135924  1.0
  Se  Se39  1  0.54936629  0.76320754  0.04135924  1.0
  Se  Se40  1  0.21384125  0.45063371  0.04135924  1.0
  Se  Se41  1  0.88269962  0.45282542  0.20802591  1.0
