# generated using pymatgen
data_Ag6GeSO8
_symmetry_space_group_name_H-M   'P 1'
_cell_length_a   7.12350600
_cell_length_b   7.12350600
_cell_length_c   18.53367800
_cell_angle_alpha   90.00000000
_cell_angle_beta   90.00000000
_cell_angle_gamma   90.00000000
_symmetry_Int_Tables_number   1
_chemical_formula_structural   Ag6GeSO8
_chemical_formula_sum   'Ag24 Ge4 S4 O32'
_cell_volume   940.47921585
_cell_formula_units_Z   4
loop_
 _symmetry_equiv_pos_site_id
 _symmetry_equiv_pos_as_xyz
  1  'x, y, z'
loop_
 _atom_site_type_symbol
 _atom_site_label
 _atom_site_symmetry_multiplicity
 _atom_site_fract_x
 _atom_site_fract_y
 _atom_site_fract_z
 _atom_site_occupancy
  Ag  Ag0  1  0.75000000  0.79296100  0.37500000  1.0
  Ag  Ag1  1  0.50000000  0.00000000  0.01391000  1.0
  Ag  Ag2  1  0.25000000  0.20703900  0.37500000  1.0
  Ag  Ag3  1  0.50000000  0.50000000  0.23609000  1.0
  Ag  Ag4  1  0.70703900  0.25000000  0.12500000  1.0
  Ag  Ag5  1  0.25000000  0.79296100  0.37500000  1.0
  Ag  Ag6  1  0.29296100  0.75000000  0.12500000  1.0
  Ag  Ag7  1  0.70703900  0.75000000  0.12500000  1.0
  Ag  Ag8  1  0.29296100  0.25000000  0.12500000  1.0
  Ag  Ag9  1  0.75000000  0.20703900  0.37500000  1.0
  Ag  Ag10  1  0.50000000  0.00000000  0.48609000  1.0
  Ag  Ag11  1  0.00000000  0.00000000  0.26391000  1.0
  Ag  Ag12  1  0.25000000  0.29296100  0.87500000  1.0
  Ag  Ag13  1  0.00000000  0.50000000  0.51391000  1.0
  Ag  Ag14  1  0.75000000  0.70703900  0.87500000  1.0
  Ag  Ag15  1  0.00000000  0.00000000  0.73609000  1.0
  Ag  Ag16  1  0.20703900  0.75000000  0.62500000  1.0
  Ag  Ag17  1  0.75000000  0.29296100  0.87500000  1.0
  Ag  Ag18  1  0.79296100  0.25000000  0.62500000  1.0
  Ag  Ag19  1  0.20703900  0.25000000  0.62500000  1.0
  Ag  Ag20  1  0.79296100  0.75000000  0.62500000  1.0
  Ag  Ag21  1  0.25000000  0.70703900  0.87500000  1.0
  Ag  Ag22  1  0.00000000  0.50000000  0.98609000  1.0
  Ag  Ag23  1  0.50000000  0.50000000  0.76391000  1.0
  Ge  Ge24  1  0.50000000  0.00000000  0.25000000  1.0
  Ge  Ge25  1  0.50000000  0.50000000  0.00000000  1.0
  Ge  Ge26  1  0.00000000  0.50000000  0.75000000  1.0
  Ge  Ge27  1  0.00000000  0.00000000  0.50000000  1.0
  S  S28  1  0.00000000  0.50000000  0.25000000  1.0
  S  S29  1  0.00000000  0.00000000  0.00000000  1.0
  S  S30  1  0.50000000  0.00000000  0.75000000  1.0
  S  S31  1  0.50000000  0.50000000  0.50000000  1.0
  O  O32  1  0.00000000  0.82798150  0.04654550  1.0
  O  O33  1  0.70685700  0.50000000  0.05460200  1.0
  O  O34  1  0.32798150  0.50000000  0.45345450  1.0
  O  O35  1  0.00000000  0.20685700  0.44539800  1.0
  O  O36  1  0.17201850  0.50000000  0.29654550  1.0
  O  O37  1  0.50000000  0.79314300  0.30460200  1.0
  O  O38  1  0.50000000  0.20685700  0.30460200  1.0
  O  O39  1  0.70685700  0.00000000  0.19539800  1.0
  O  O40  1  0.67201850  0.50000000  0.45345450  1.0
  O  O41  1  0.29314300  0.50000000  0.05460200  1.0
  O  O42  1  0.82798150  0.50000000  0.29654550  1.0
  O  O43  1  0.00000000  0.79314300  0.44539800  1.0
  O  O44  1  0.00000000  0.67201850  0.20345450  1.0
  O  O45  1  0.00000000  0.17201850  0.04654550  1.0
  O  O46  1  0.29314300  0.00000000  0.19539800  1.0
  O  O47  1  0.00000000  0.32798150  0.20345450  1.0
  O  O48  1  0.50000000  0.32798150  0.54654550  1.0
  O  O49  1  0.20685700  0.00000000  0.55460200  1.0
  O  O50  1  0.82798150  0.00000000  0.95345450  1.0
  O  O51  1  0.50000000  0.70685700  0.94539800  1.0
  O  O52  1  0.67201850  0.00000000  0.79654550  1.0
  O  O53  1  0.00000000  0.29314300  0.80460200  1.0
  O  O54  1  0.00000000  0.70685700  0.80460200  1.0
  O  O55  1  0.20685700  0.50000000  0.69539800  1.0
  O  O56  1  0.17201850  0.00000000  0.95345450  1.0
  O  O57  1  0.79314300  0.00000000  0.55460200  1.0
  O  O58  1  0.32798150  0.00000000  0.79654550  1.0
  O  O59  1  0.50000000  0.29314300  0.94539800  1.0
  O  O60  1  0.50000000  0.17201850  0.70345450  1.0
  O  O61  1  0.50000000  0.67201850  0.54654550  1.0
  O  O62  1  0.79314300  0.50000000  0.69539800  1.0
  O  O63  1  0.50000000  0.82798150  0.70345450  1.0
