# generated using pymatgen
data_Ag10Te4Br3
_symmetry_space_group_name_H-M   'P 1'
_cell_length_a   15.50556664
_cell_length_b   15.76077352
_cell_length_c   13.81732461
_cell_angle_alpha   90.00000000
_cell_angle_beta   90.00000000
_cell_angle_gamma   90.00000000
_symmetry_Int_Tables_number   1
_chemical_formula_structural   Ag10Te4Br3
_chemical_formula_sum   'Ag80 Te32 Br24'
_cell_volume   3376.67397616
_cell_formula_units_Z   8
loop_
 _symmetry_equiv_pos_site_id
 _symmetry_equiv_pos_as_xyz
  1  'x, y, z'
loop_
 _atom_site_type_symbol
 _atom_site_label
 _atom_site_symmetry_multiplicity
 _atom_site_fract_x
 _atom_site_fract_y
 _atom_site_fract_z
 _atom_site_occupancy
  Ag  Ag0  1  0.59677730  0.76777520  0.10147342  1.0
  Ag  Ag1  1  0.50000000  0.12839355  0.25000000  1.0
  Ag  Ag2  1  0.60837717  0.76020982  0.63276368  1.0
  Ag  Ag3  1  0.60837717  0.76020982  0.86723632  1.0
  Ag  Ag4  1  0.35841472  0.95558063  0.64585270  1.0
  Ag  Ag5  1  0.35841472  0.04441937  0.14585270  1.0
  Ag  Ag6  1  0.90872718  0.97138637  0.75000000  1.0
  Ag  Ag7  1  0.40322270  0.23222480  0.89852658  1.0
  Ag  Ag8  1  0.40322270  0.76777520  0.39852658  1.0
  Ag  Ag9  1  0.50000000  0.64214767  0.75000000  1.0
  Ag  Ag10  1  0.59677730  0.23222480  0.60147342  1.0
  Ag  Ag11  1  0.09767177  0.91950026  0.07416950  1.0
  Ag  Ag12  1  0.90232823  0.91950026  0.42583050  1.0
  Ag  Ag13  1  0.35841472  0.95558063  0.85414730  1.0
  Ag  Ag14  1  0.59677730  0.23222480  0.89852658  1.0
  Ag  Ag15  1  0.39162283  0.23979018  0.13276368  1.0
  Ag  Ag16  1  0.50000000  0.87160645  0.75000000  1.0
  Ag  Ag17  1  0.90232823  0.08049974  0.57416950  1.0
  Ag  Ag18  1  0.09127282  0.97138637  0.75000000  1.0
  Ag  Ag19  1  0.50000000  0.35785233  0.25000000  1.0
  Ag  Ag20  1  0.60837717  0.23979018  0.36723632  1.0
  Ag  Ag21  1  0.09767177  0.08049974  0.57416950  1.0
  Ag  Ag22  1  0.39162283  0.76020982  0.86723632  1.0
  Ag  Ag23  1  0.90232823  0.91950026  0.07416950  1.0
  Ag  Ag24  1  0.90872718  0.02861363  0.25000000  1.0
  Ag  Ag25  1  0.60837717  0.23979018  0.13276368  1.0
  Ag  Ag26  1  0.64158528  0.04441937  0.35414730  1.0
  Ag  Ag27  1  0.39162283  0.23979018  0.36723632  1.0
  Ag  Ag28  1  0.35841472  0.04441937  0.35414730  1.0
  Ag  Ag29  1  0.40322270  0.23222480  0.60147342  1.0
  Ag  Ag30  1  0.09767177  0.91950026  0.42583050  1.0
  Ag  Ag31  1  0.39162283  0.76020982  0.63276368  1.0
  Ag  Ag32  1  0.90232823  0.08049974  0.92583050  1.0
  Ag  Ag33  1  0.64158528  0.95558063  0.64585270  1.0
  Ag  Ag34  1  0.40322270  0.76777520  0.10147342  1.0
  Ag  Ag35  1  0.09127282  0.02861363  0.25000000  1.0
  Ag  Ag36  1  0.64158528  0.95558063  0.85414730  1.0
  Ag  Ag37  1  0.09767177  0.08049974  0.92583050  1.0
  Ag  Ag38  1  0.59677730  0.76777520  0.39852658  1.0
  Ag  Ag39  1  0.64158528  0.04441937  0.14585270  1.0
  Ag  Ag40  1  0.09677730  0.26777520  0.10147342  1.0
  Ag  Ag41  1  0.00000000  0.62839355  0.25000000  1.0
  Ag  Ag42  1  0.10837717  0.26020982  0.63276368  1.0
  Ag  Ag43  1  0.10837717  0.26020982  0.86723632  1.0
  Ag  Ag44  1  0.85841472  0.45558063  0.64585270  1.0
  Ag  Ag45  1  0.85841472  0.54441937  0.14585270  1.0
  Ag  Ag46  1  0.40872718  0.47138637  0.75000000  1.0
  Ag  Ag47  1  0.90322270  0.73222480  0.89852658  1.0
  Ag  Ag48  1  0.90322270  0.26777520  0.39852658  1.0
  Ag  Ag49  1  0.00000000  0.14214767  0.75000000  1.0
  Ag  Ag50  1  0.09677730  0.73222480  0.60147342  1.0
  Ag  Ag51  1  0.59767177  0.41950026  0.07416950  1.0
  Ag  Ag52  1  0.40232823  0.41950026  0.42583050  1.0
  Ag  Ag53  1  0.85841472  0.45558063  0.85414730  1.0
  Ag  Ag54  1  0.09677730  0.73222480  0.89852658  1.0
  Ag  Ag55  1  0.89162283  0.73979018  0.13276368  1.0
  Ag  Ag56  1  0.00000000  0.37160645  0.75000000  1.0
  Ag  Ag57  1  0.40232823  0.58049974  0.57416950  1.0
  Ag  Ag58  1  0.59127282  0.47138637  0.75000000  1.0
  Ag  Ag59  1  0.00000000  0.85785233  0.25000000  1.0
  Ag  Ag60  1  0.10837717  0.73979018  0.36723632  1.0
  Ag  Ag61  1  0.59767177  0.58049974  0.57416950  1.0
  Ag  Ag62  1  0.89162283  0.26020982  0.86723632  1.0
  Ag  Ag63  1  0.40232823  0.41950026  0.07416950  1.0
  Ag  Ag64  1  0.40872718  0.52861363  0.25000000  1.0
  Ag  Ag65  1  0.10837717  0.73979018  0.13276368  1.0
  Ag  Ag66  1  0.14158528  0.54441937  0.35414730  1.0
  Ag  Ag67  1  0.89162283  0.73979018  0.36723632  1.0
  Ag  Ag68  1  0.85841472  0.54441937  0.35414730  1.0
  Ag  Ag69  1  0.90322270  0.73222480  0.60147342  1.0
  Ag  Ag70  1  0.59767177  0.41950026  0.42583050  1.0
  Ag  Ag71  1  0.89162283  0.26020982  0.63276368  1.0
  Ag  Ag72  1  0.40232823  0.58049974  0.92583050  1.0
  Ag  Ag73  1  0.14158528  0.45558063  0.64585270  1.0
  Ag  Ag74  1  0.90322270  0.26777520  0.10147342  1.0
  Ag  Ag75  1  0.59127282  0.52861363  0.25000000  1.0
  Ag  Ag76  1  0.14158528  0.45558063  0.85414730  1.0
  Ag  Ag77  1  0.59767177  0.58049974  0.92583050  1.0
  Ag  Ag78  1  0.09677730  0.26777520  0.39852658  1.0
  Ag  Ag79  1  0.14158528  0.54441937  0.14585270  1.0
  Te  Te80  1  0.82060561  0.13086729  0.75000000  1.0
  Te  Te81  1  0.40825769  0.11069544  0.75000000  1.0
  Te  Te82  1  0.50000000  0.11892782  0.45187457  1.0
  Te  Te83  1  0.50000000  0.61573974  0.40957803  1.0
  Te  Te84  1  0.82060561  0.86913271  0.25000000  1.0
  Te  Te85  1  0.17939439  0.13086729  0.75000000  1.0
  Te  Te86  1  0.59174231  0.11069544  0.75000000  1.0
  Te  Te87  1  0.17939439  0.86913271  0.25000000  1.0
  Te  Te88  1  0.50000000  0.88107218  0.54812543  1.0
  Te  Te89  1  0.40825769  0.88930456  0.25000000  1.0
  Te  Te90  1  0.50000000  0.61573974  0.09042197  1.0
  Te  Te91  1  0.50000000  0.11892782  0.04812543  1.0
  Te  Te92  1  0.50000000  0.38426026  0.90957803  1.0
  Te  Te93  1  0.50000000  0.38426026  0.59042197  1.0
  Te  Te94  1  0.50000000  0.88107218  0.95187457  1.0
  Te  Te95  1  0.59174231  0.88930456  0.25000000  1.0
  Te  Te96  1  0.32060561  0.63086729  0.75000000  1.0
  Te  Te97  1  0.90825769  0.61069544  0.75000000  1.0
  Te  Te98  1  0.00000000  0.61892782  0.45187457  1.0
  Te  Te99  1  0.00000000  0.11573974  0.40957803  1.0
  Te  Te100  1  0.32060561  0.36913271  0.25000000  1.0
  Te  Te101  1  0.67939439  0.63086729  0.75000000  1.0
  Te  Te102  1  0.09174231  0.61069544  0.75000000  1.0
  Te  Te103  1  0.67939439  0.36913271  0.25000000  1.0
  Te  Te104  1  0.00000000  0.38107218  0.54812543  1.0
  Te  Te105  1  0.90825769  0.38930456  0.25000000  1.0
  Te  Te106  1  0.00000000  0.11573974  0.09042197  1.0
  Te  Te107  1  0.00000000  0.61892782  0.04812543  1.0
  Te  Te108  1  0.00000000  0.88426026  0.90957803  1.0
  Te  Te109  1  0.00000000  0.88426026  0.59042197  1.0
  Te  Te110  1  0.00000000  0.38107218  0.95187457  1.0
  Te  Te111  1  0.09174231  0.38930456  0.25000000  1.0
  Br  Br112  1  0.24912007  0.00000000  0.50000000  1.0
  Br  Br113  1  0.76823276  0.86711805  0.75000000  1.0
  Br  Br114  1  0.24912007  0.00000000  0.00000000  1.0
  Br  Br115  1  0.75087993  0.00000000  0.50000000  1.0
  Br  Br116  1  0.23176724  0.13288195  0.25000000  1.0
  Br  Br117  1  0.75000000  0.75000000  0.50000000  1.0
  Br  Br118  1  0.75087993  0.00000000  0.00000000  1.0
  Br  Br119  1  0.23176724  0.86711805  0.75000000  1.0
  Br  Br120  1  0.75000000  0.75000000  0.00000000  1.0
  Br  Br121  1  0.76823276  0.13288195  0.25000000  1.0
  Br  Br122  1  0.75000000  0.25000000  0.50000000  1.0
  Br  Br123  1  0.75000000  0.25000000  0.00000000  1.0
  Br  Br124  1  0.74912007  0.50000000  0.50000000  1.0
  Br  Br125  1  0.26823276  0.36711805  0.75000000  1.0
  Br  Br126  1  0.74912007  0.50000000  0.00000000  1.0
  Br  Br127  1  0.25087993  0.50000000  0.50000000  1.0
  Br  Br128  1  0.73176724  0.63288195  0.25000000  1.0
  Br  Br129  1  0.25000000  0.25000000  0.50000000  1.0
  Br  Br130  1  0.25087993  0.50000000  0.00000000  1.0
  Br  Br131  1  0.73176724  0.36711805  0.75000000  1.0
  Br  Br132  1  0.25000000  0.25000000  0.00000000  1.0
  Br  Br133  1  0.26823276  0.63288195  0.25000000  1.0
  Br  Br134  1  0.25000000  0.75000000  0.50000000  1.0
  Br  Br135  1  0.25000000  0.75000000  0.00000000  1.0
