# generated using pymatgen
data_Ag2Te4O11
_symmetry_space_group_name_H-M   'P 1'
_cell_length_a   7.28625984
_cell_length_b   7.38688206
_cell_length_c   9.65282277
_cell_angle_alpha   95.47079604
_cell_angle_beta   93.73752847
_cell_angle_gamma   119.43389487
_symmetry_Int_Tables_number   1
_chemical_formula_structural   Ag2Te4O11
_chemical_formula_sum   'Ag4 Te8 O22'
_cell_volume   446.64264566
_cell_formula_units_Z   2
loop_
 _symmetry_equiv_pos_site_id
 _symmetry_equiv_pos_as_xyz
  1  'x, y, z'
loop_
 _atom_site_type_symbol
 _atom_site_label
 _atom_site_symmetry_multiplicity
 _atom_site_fract_x
 _atom_site_fract_y
 _atom_site_fract_z
 _atom_site_occupancy
  Ag  Ag0  1  0.99406368  0.17799203  0.35243268  1.0
  Ag  Ag1  1  0.77128728  0.28113351  0.01231541  1.0
  Ag  Ag2  1  0.00593632  0.82200797  0.64756732  1.0
  Ag  Ag3  1  0.22871272  0.71886649  0.98768459  1.0
  Te  Te4  1  0.49208031  0.69252216  0.31360821  1.0
  Te  Te5  1  0.77503154  0.78510539  0.00100894  1.0
  Te  Te6  1  0.50791969  0.30747784  0.68639179  1.0
  Te  Te7  1  0.49037385  0.18851392  0.31014476  1.0
  Te  Te8  1  0.50962615  0.81148608  0.68985524  1.0
  Te  Te9  1  0.22496846  0.21489461  0.99899106  1.0
  Te  Te10  1  0.00089766  0.68271893  0.32926483  1.0
  Te  Te11  1  0.99910234  0.31728107  0.67073517  1.0
  O  O12  1  0.93889905  0.69578103  0.13786010  1.0
  O  O13  1  0.53654527  0.68965879  0.11928251  1.0
  O  O14  1  0.22667774  0.23290945  0.62053971  1.0
  O  O15  1  0.22680005  0.63448786  0.73193927  1.0
  O  O16  1  0.78184327  0.99583207  0.64122103  1.0
  O  O17  1  0.07715247  0.93993939  0.89862006  1.0
  O  O18  1  0.06110095  0.30421897  0.86213990  1.0
  O  O19  1  0.79309146  0.39316571  0.76003075  1.0
  O  O20  1  0.92284753  0.06006061  0.10137994  1.0
  O  O21  1  0.39728735  0.09410337  0.11425700  1.0
  O  O22  1  0.77319995  0.36551214  0.26806073  1.0
  O  O23  1  0.77332226  0.76709055  0.37946029  1.0
  O  O24  1  0.20690854  0.60683429  0.23996925  1.0
  O  O25  1  0.59185706  0.99235498  0.33309146  1.0
  O  O26  1  0.21815673  0.00416793  0.35877897  1.0
  O  O27  1  0.60788325  0.31828255  0.50397305  1.0
  O  O28  1  0.60271265  0.90589663  0.88574300  1.0
  O  O29  1  0.39211675  0.68171745  0.49602695  1.0
  O  O30  1  0.60921155  0.60832428  0.70200292  1.0
  O  O31  1  0.46345473  0.31034121  0.88071749  1.0
  O  O32  1  0.40814294  0.00764502  0.66690854  1.0
  O  O33  1  0.39078845  0.39167572  0.29799708  1.0
