# generated using pymatgen
data_Ag2SO4
_symmetry_space_group_name_H-M   'P 1'
_cell_length_a   5.53940732
_cell_length_b   11.03412223
_cell_length_c   12.48600353
_cell_angle_alpha   90.00000000
_cell_angle_beta   90.00000000
_cell_angle_gamma   90.00000000
_symmetry_Int_Tables_number   1
_chemical_formula_structural   Ag2SO4
_chemical_formula_sum   'Ag16 S8 O32'
_cell_volume   763.17571893
_cell_formula_units_Z   8
loop_
 _symmetry_equiv_pos_site_id
 _symmetry_equiv_pos_as_xyz
  1  'x, y, z'
loop_
 _atom_site_type_symbol
 _atom_site_label
 _atom_site_symmetry_multiplicity
 _atom_site_fract_x
 _atom_site_fract_y
 _atom_site_fract_z
 _atom_site_occupancy
  Ag  Ag0  1  0.75000000  0.94979919  0.75000000  1.0
  Ag  Ag1  1  0.75000000  0.55020081  0.75000000  1.0
  Ag  Ag2  1  0.50000000  0.80020081  0.00000000  1.0
  Ag  Ag3  1  0.00000000  0.69979919  0.00000000  1.0
  Ag  Ag4  1  0.75000000  0.44979919  0.25000000  1.0
  Ag  Ag5  1  0.75000000  0.05020081  0.25000000  1.0
  Ag  Ag6  1  0.50000000  0.30020081  0.50000000  1.0
  Ag  Ag7  1  0.00000000  0.19979919  0.50000000  1.0
  Ag  Ag8  1  0.25000000  0.94979919  0.25000000  1.0
  Ag  Ag9  1  0.25000000  0.55020081  0.25000000  1.0
  Ag  Ag10  1  0.00000000  0.80020081  0.50000000  1.0
  Ag  Ag11  1  0.50000000  0.69979919  0.50000000  1.0
  Ag  Ag12  1  0.25000000  0.44979919  0.75000000  1.0
  Ag  Ag13  1  0.25000000  0.05020081  0.75000000  1.0
  Ag  Ag14  1  0.00000000  0.30020081  0.00000000  1.0
  Ag  Ag15  1  0.50000000  0.19979919  0.00000000  1.0
  S  S16  1  0.25000000  0.75000000  0.75000000  1.0
  S  S17  1  0.00000000  0.00000000  0.00000000  1.0
  S  S18  1  0.25000000  0.25000000  0.25000000  1.0
  S  S19  1  0.00000000  0.50000000  0.50000000  1.0
  S  S20  1  0.75000000  0.75000000  0.25000000  1.0
  S  S21  1  0.50000000  0.00000000  0.50000000  1.0
  S  S22  1  0.75000000  0.25000000  0.75000000  1.0
  S  S23  1  0.50000000  0.50000000  0.00000000  1.0
  O  O24  1  0.40244313  0.67131871  0.68136021  1.0
  O  O25  1  0.40244313  0.82868129  0.81863979  1.0
  O  O26  1  0.09755687  0.67131871  0.81863979  1.0
  O  O27  1  0.09755687  0.82868129  0.68136021  1.0
  O  O28  1  0.84755687  0.57868129  0.56863979  1.0
  O  O29  1  0.84755687  0.92131871  0.93136021  1.0
  O  O30  1  0.65244313  0.92131871  0.56863979  1.0
  O  O31  1  0.65244313  0.57868129  0.93136021  1.0
  O  O32  1  0.40244313  0.17131871  0.18136021  1.0
  O  O33  1  0.40244313  0.32868129  0.31863979  1.0
  O  O34  1  0.09755687  0.17131871  0.31863979  1.0
  O  O35  1  0.09755687  0.32868129  0.18136021  1.0
  O  O36  1  0.84755687  0.07868129  0.06863979  1.0
  O  O37  1  0.84755687  0.42131871  0.43136021  1.0
  O  O38  1  0.65244313  0.42131871  0.06863979  1.0
  O  O39  1  0.65244313  0.07868129  0.43136021  1.0
  O  O40  1  0.90244313  0.67131871  0.18136021  1.0
  O  O41  1  0.90244313  0.82868129  0.31863979  1.0
  O  O42  1  0.59755687  0.67131871  0.31863979  1.0
  O  O43  1  0.59755687  0.82868129  0.18136021  1.0
  O  O44  1  0.34755687  0.57868129  0.06863979  1.0
  O  O45  1  0.34755687  0.92131871  0.43136021  1.0
  O  O46  1  0.15244313  0.92131871  0.06863979  1.0
  O  O47  1  0.15244313  0.57868129  0.43136021  1.0
  O  O48  1  0.90244313  0.17131871  0.68136021  1.0
  O  O49  1  0.90244313  0.32868129  0.81863979  1.0
  O  O50  1  0.59755687  0.17131871  0.81863979  1.0
  O  O51  1  0.59755687  0.32868129  0.68136021  1.0
  O  O52  1  0.34755687  0.07868129  0.56863979  1.0
  O  O53  1  0.34755687  0.42131871  0.93136021  1.0
  O  O54  1  0.15244313  0.42131871  0.56863979  1.0
  O  O55  1  0.15244313  0.07868129  0.93136021  1.0
