# generated using pymatgen
data_Ag3AsS3
_symmetry_space_group_name_H-M   'P 1'
_cell_length_a   12.02151372
_cell_length_b   6.35400996
_cell_length_c   16.97842039
_cell_angle_alpha   90.00000000
_cell_angle_beta   110.03355616
_cell_angle_gamma   90.00000000
_symmetry_Int_Tables_number   1
_chemical_formula_structural   Ag3AsS3
_chemical_formula_sum   'Ag24 As8 S24'
_cell_volume   1218.42130985
_cell_formula_units_Z   8
loop_
 _symmetry_equiv_pos_site_id
 _symmetry_equiv_pos_as_xyz
  1  'x, y, z'
loop_
 _atom_site_type_symbol
 _atom_site_label
 _atom_site_symmetry_multiplicity
 _atom_site_fract_x
 _atom_site_fract_y
 _atom_site_fract_z
 _atom_site_occupancy
  Ag  Ag0  1  0.36584530  0.53229528  0.78522635  1.0
  Ag  Ag1  1  0.13415470  0.03229528  0.71477365  1.0
  Ag  Ag2  1  0.14026294  0.54345752  0.86590665  1.0
  Ag  Ag3  1  0.85973706  0.45654248  0.13409335  1.0
  Ag  Ag4  1  0.93443895  0.08123044  0.06151742  1.0
  Ag  Ag5  1  0.93443895  0.91876956  0.56151742  1.0
  Ag  Ag6  1  0.63415470  0.46770472  0.21477365  1.0
  Ag  Ag7  1  0.06556105  0.08123044  0.43848258  1.0
  Ag  Ag8  1  0.85973706  0.54345752  0.63409335  1.0
  Ag  Ag9  1  0.06556105  0.91876956  0.93848258  1.0
  Ag  Ag10  1  0.86584530  0.96770472  0.28522635  1.0
  Ag  Ag11  1  0.14026294  0.45654248  0.36590665  1.0
  Ag  Ag12  1  0.86584530  0.03229528  0.78522635  1.0
  Ag  Ag13  1  0.63415470  0.53229528  0.71477365  1.0
  Ag  Ag14  1  0.64026294  0.04345752  0.86590665  1.0
  Ag  Ag15  1  0.35973706  0.95654248  0.13409335  1.0
  Ag  Ag16  1  0.43443895  0.58123044  0.06151742  1.0
  Ag  Ag17  1  0.43443895  0.41876956  0.56151742  1.0
  Ag  Ag18  1  0.13415470  0.96770472  0.21477365  1.0
  Ag  Ag19  1  0.56556105  0.58123044  0.43848258  1.0
  Ag  Ag20  1  0.35973706  0.04345752  0.63409335  1.0
  Ag  Ag21  1  0.56556105  0.41876956  0.93848258  1.0
  Ag  Ag22  1  0.36584530  0.46770472  0.28522635  1.0
  Ag  Ag23  1  0.64026294  0.95654248  0.36590665  1.0
  As  As24  1  0.35405314  0.05593329  0.92756643  1.0
  As  As25  1  0.14594686  0.55593329  0.57243357  1.0
  As  As26  1  0.85405314  0.44406671  0.42756643  1.0
  As  As27  1  0.64594686  0.94406671  0.07243357  1.0
  As  As28  1  0.85405314  0.55593329  0.92756643  1.0
  As  As29  1  0.64594686  0.05593329  0.57243357  1.0
  As  As30  1  0.35405314  0.94406671  0.42756643  1.0
  As  As31  1  0.14594686  0.44406671  0.07243357  1.0
  S  S32  1  0.15577964  0.19439286  0.58650230  1.0
  S  S33  1  0.92603425  0.64333315  0.82522936  1.0
  S  S34  1  0.83729944  0.14453030  0.64067705  1.0
  S  S35  1  0.16270056  0.14453030  0.85932295  1.0
  S  S36  1  0.07396575  0.64333315  0.67477064  1.0
  S  S37  1  0.16270056  0.85546970  0.35932295  1.0
  S  S38  1  0.83729944  0.85546970  0.14067705  1.0
  S  S39  1  0.07396575  0.35666685  0.17477064  1.0
  S  S40  1  0.65577964  0.30560714  0.08650230  1.0
  S  S41  1  0.34422036  0.69439286  0.91349770  1.0
  S  S42  1  0.84422036  0.80560714  0.41349770  1.0
  S  S43  1  0.92603425  0.35666685  0.32522936  1.0
  S  S44  1  0.65577964  0.69439286  0.58650230  1.0
  S  S45  1  0.42603425  0.14333315  0.82522936  1.0
  S  S46  1  0.33729944  0.64453030  0.64067705  1.0
  S  S47  1  0.66270056  0.64453030  0.85932295  1.0
  S  S48  1  0.57396575  0.14333315  0.67477064  1.0
  S  S49  1  0.66270056  0.35546970  0.35932295  1.0
  S  S50  1  0.33729944  0.35546970  0.14067705  1.0
  S  S51  1  0.57396575  0.85666685  0.17477064  1.0
  S  S52  1  0.15577964  0.80560714  0.08650230  1.0
  S  S53  1  0.84422036  0.19439286  0.91349770  1.0
  S  S54  1  0.34422036  0.30560714  0.41349770  1.0
  S  S55  1  0.42603425  0.85666685  0.32522936  1.0
