# generated using pymatgen
data_Ag5P(S2Cl)2
_symmetry_space_group_name_H-M   'P 1'
_cell_length_a   6.33350800
_cell_length_b   11.24397801
_cell_length_c   7.48753600
_cell_angle_alpha   90.00000000
_cell_angle_beta   90.00000000
_cell_angle_gamma   90.00000000
_symmetry_Int_Tables_number   1
_chemical_formula_structural   Ag5P(S2Cl)2
_chemical_formula_sum   'Ag10 P2 S8 Cl4'
_cell_volume   533.21607598
_cell_formula_units_Z   2
loop_
 _symmetry_equiv_pos_site_id
 _symmetry_equiv_pos_as_xyz
  1  'x, y, z'
loop_
 _atom_site_type_symbol
 _atom_site_label
 _atom_site_symmetry_multiplicity
 _atom_site_fract_x
 _atom_site_fract_y
 _atom_site_fract_z
 _atom_site_occupancy
  Ag  Ag0  1  0.62913900  0.30902700  0.78127500  1.0
  Ag  Ag1  1  0.59532000  0.00000000  0.50000000  1.0
  Ag  Ag2  1  0.62913900  0.30902700  0.21872500  1.0
  Ag  Ag3  1  0.12913900  0.19097300  0.21872500  1.0
  Ag  Ag4  1  0.12913900  0.19097300  0.78127500  1.0
  Ag  Ag5  1  0.12913900  0.80902700  0.78127500  1.0
  Ag  Ag6  1  0.09532000  0.50000000  0.50000000  1.0
  Ag  Ag7  1  0.12913900  0.80902700  0.21872500  1.0
  Ag  Ag8  1  0.62913900  0.69097300  0.21872500  1.0
  Ag  Ag9  1  0.62913900  0.69097300  0.78127500  1.0
  P  P10  1  0.53888300  0.00000000  0.00000000  1.0
  P  P11  1  0.03888300  0.50000000  0.00000000  1.0
  S  S12  1  0.34997800  0.00000000  0.77218900  1.0
  S  S13  1  0.34997800  0.00000000  0.22781100  1.0
  S  S14  1  0.23728550  0.35201950  0.00000000  1.0
  S  S15  1  0.73728550  0.14798050  0.00000000  1.0
  S  S16  1  0.84997800  0.50000000  0.77218900  1.0
  S  S17  1  0.84997800  0.50000000  0.22781100  1.0
  S  S18  1  0.73728550  0.85201950  0.00000000  1.0
  S  S19  1  0.23728550  0.64798050  0.00000000  1.0
  Cl  Cl20  1  0.88426250  0.17225650  0.50000000  1.0
  Cl  Cl21  1  0.38426250  0.32774350  0.50000000  1.0
  Cl  Cl22  1  0.38426250  0.67225650  0.50000000  1.0
  Cl  Cl23  1  0.88426250  0.82774350  0.50000000  1.0
