# generated using pymatgen
data_Ag2Hg2(TeO4)3
_symmetry_space_group_name_H-M   'P 1'
_cell_length_a   6.49099422
_cell_length_b   6.18582582
_cell_length_c   14.28034676
_cell_angle_alpha   90.00000000
_cell_angle_beta   113.12379017
_cell_angle_gamma   90.00000000
_symmetry_Int_Tables_number   1
_chemical_formula_structural   Ag2Hg2(TeO4)3
_chemical_formula_sum   'Ag4 Hg4 Te6 O24'
_cell_volume   527.32001776
_cell_formula_units_Z   2
loop_
 _symmetry_equiv_pos_site_id
 _symmetry_equiv_pos_as_xyz
  1  'x, y, z'
loop_
 _atom_site_type_symbol
 _atom_site_label
 _atom_site_symmetry_multiplicity
 _atom_site_fract_x
 _atom_site_fract_y
 _atom_site_fract_z
 _atom_site_occupancy
  Ag  Ag0  1  0.10183736  0.86482565  0.79268473  1.0
  Ag  Ag1  1  0.10183736  0.63517435  0.29268473  1.0
  Ag  Ag2  1  0.89816264  0.36482565  0.70731527  1.0
  Ag  Ag3  1  0.89816264  0.13517435  0.20731527  1.0
  Hg  Hg4  1  0.70363864  0.54262219  0.39892576  1.0
  Hg  Hg5  1  0.70363864  0.95737781  0.89892576  1.0
  Hg  Hg6  1  0.29636136  0.04262219  0.10107424  1.0
  Hg  Hg7  1  0.29636136  0.45737781  0.60107424  1.0
  Te  Te8  1  0.59225536  0.59417682  0.10699272  1.0
  Te  Te9  1  0.40774464  0.09417682  0.39300728  1.0
  Te  Te10  1  0.40774464  0.40582318  0.89300728  1.0
  Te  Te11  1  0.00000000  0.50000000  0.00000000  1.0
  Te  Te12  1  0.59225536  0.90582318  0.60699272  1.0
  Te  Te13  1  0.00000000  0.00000000  0.50000000  1.0
  O  O14  1  0.99945518  0.21829536  0.05581451  1.0
  O  O15  1  0.88164306  0.86971230  0.59363603  1.0
  O  O16  1  0.00054482  0.78170464  0.94418549  1.0
  O  O17  1  0.60424453  0.88395339  0.14988175  1.0
  O  O18  1  0.99945518  0.28170464  0.55581451  1.0
  O  O19  1  0.70704322  0.05900248  0.39163861  1.0
  O  O20  1  0.11835694  0.36971230  0.90636397  1.0
  O  O21  1  0.55038838  0.31333606  0.03707976  1.0
  O  O22  1  0.73829694  0.03518723  0.73290082  1.0
  O  O23  1  0.70704322  0.44099752  0.89163861  1.0
  O  O24  1  0.00054482  0.71829536  0.44418549  1.0
  O  O25  1  0.88164306  0.63028770  0.09363603  1.0
  O  O26  1  0.29295678  0.55900248  0.10836139  1.0
  O  O27  1  0.73829694  0.46481277  0.23290082  1.0
  O  O28  1  0.29295678  0.94099752  0.60836139  1.0
  O  O29  1  0.26170306  0.53518723  0.76709918  1.0
  O  O30  1  0.55038838  0.18666394  0.53707976  1.0
  O  O31  1  0.39575547  0.38395339  0.35011825  1.0
  O  O32  1  0.39575547  0.11604661  0.85011825  1.0
  O  O33  1  0.11835694  0.13028770  0.40636397  1.0
  O  O34  1  0.44961162  0.81333606  0.46292024  1.0
  O  O35  1  0.44961162  0.68666394  0.96292024  1.0
  O  O36  1  0.26170306  0.96481277  0.26709918  1.0
  O  O37  1  0.60424453  0.61604661  0.64988175  1.0
