# generated using pymatgen
data_Ag2TeO4
_symmetry_space_group_name_H-M   'P 1'
_cell_length_a   8.98256412
_cell_length_b   9.27604885
_cell_length_c   13.71695292
_cell_angle_alpha   90.00000000
_cell_angle_beta   90.89933930
_cell_angle_gamma   90.00000000
_symmetry_Int_Tables_number   1
_chemical_formula_structural   Ag2TeO4
_chemical_formula_sum   'Ag24 Te12 O48'
_cell_volume   1142.79280817
_cell_formula_units_Z   12
loop_
 _symmetry_equiv_pos_site_id
 _symmetry_equiv_pos_as_xyz
  1  'x, y, z'
loop_
 _atom_site_type_symbol
 _atom_site_label
 _atom_site_symmetry_multiplicity
 _atom_site_fract_x
 _atom_site_fract_y
 _atom_site_fract_z
 _atom_site_occupancy
  Ag  Ag0  1  0.50000000  0.78049574  0.25000000  1.0
  Ag  Ag1  1  0.67715149  0.06083421  0.32532041  1.0
  Ag  Ag2  1  0.50000000  0.54176225  0.75000000  1.0
  Ag  Ag3  1  0.50000000  0.21950426  0.75000000  1.0
  Ag  Ag4  1  0.50000000  0.45823775  0.25000000  1.0
  Ag  Ag5  1  0.32284851  0.93916579  0.67467959  1.0
  Ag  Ag6  1  0.63389130  0.85206602  0.06849656  1.0
  Ag  Ag7  1  0.36610870  0.85206602  0.43150344  1.0
  Ag  Ag8  1  0.32284851  0.06083421  0.17467959  1.0
  Ag  Ag9  1  0.63389130  0.14793398  0.56849656  1.0
  Ag  Ag10  1  0.67715149  0.93916579  0.82532041  1.0
  Ag  Ag11  1  0.36610870  0.14793398  0.93150344  1.0
  Ag  Ag12  1  0.00000000  0.28049574  0.25000000  1.0
  Ag  Ag13  1  0.17715149  0.56083421  0.32532041  1.0
  Ag  Ag14  1  0.00000000  0.04176225  0.75000000  1.0
  Ag  Ag15  1  0.00000000  0.71950426  0.75000000  1.0
  Ag  Ag16  1  0.00000000  0.95823775  0.25000000  1.0
  Ag  Ag17  1  0.82284851  0.43916579  0.67467959  1.0
  Ag  Ag18  1  0.13389130  0.35206602  0.06849656  1.0
  Ag  Ag19  1  0.86610870  0.35206602  0.43150344  1.0
  Ag  Ag20  1  0.82284851  0.56083421  0.17467959  1.0
  Ag  Ag21  1  0.13389130  0.64793398  0.56849656  1.0
  Ag  Ag22  1  0.17715149  0.43916579  0.82532041  1.0
  Ag  Ag23  1  0.86610870  0.64793398  0.93150344  1.0
  Te  Te24  1  0.29341821  0.20688300  0.39595503  1.0
  Te  Te25  1  0.70658179  0.79311700  0.60404497  1.0
  Te  Te26  1  0.70658179  0.20688300  0.10404497  1.0
  Te  Te27  1  0.00000000  0.00000000  0.50000000  1.0
  Te  Te28  1  0.29341821  0.79311700  0.89595503  1.0
  Te  Te29  1  0.00000000  0.00000000  0.00000000  1.0
  Te  Te30  1  0.79341821  0.70688300  0.39595503  1.0
  Te  Te31  1  0.20658179  0.29311700  0.60404497  1.0
  Te  Te32  1  0.20658179  0.70688300  0.10404497  1.0
  Te  Te33  1  0.50000000  0.50000000  0.50000000  1.0
  Te  Te34  1  0.79341821  0.29311700  0.89595503  1.0
  Te  Te35  1  0.50000000  0.50000000  0.00000000  1.0
  O  O36  1  0.83946739  0.11266803  0.45320381  1.0
  O  O37  1  0.66460820  0.15447047  0.96657046  1.0
  O  O38  1  0.58416402  0.06029153  0.15026279  1.0
  O  O39  1  0.45744235  0.65484926  0.90414440  1.0
  O  O40  1  0.58416402  0.93970847  0.65026279  1.0
  O  O41  1  0.41583598  0.06029153  0.34973721  1.0
  O  O42  1  0.45744235  0.34515074  0.40414440  1.0
  O  O43  1  0.87874283  0.07565208  0.10716140  1.0
  O  O44  1  0.41583598  0.93970847  0.84973721  1.0
  O  O45  1  0.83946739  0.88733197  0.95320381  1.0
  O  O46  1  0.54255765  0.65484926  0.59585560  1.0
  O  O47  1  0.16053261  0.88733197  0.54679619  1.0
  O  O48  1  0.26386421  0.21349817  0.72485689  1.0
  O  O49  1  0.87874283  0.92434792  0.60716140  1.0
  O  O50  1  0.33539180  0.84552953  0.03342954  1.0
  O  O51  1  0.26386421  0.78650183  0.22485689  1.0
  O  O52  1  0.54255765  0.34515074  0.09585560  1.0
  O  O53  1  0.16053261  0.11266803  0.04679619  1.0
  O  O54  1  0.73613579  0.78650183  0.27514311  1.0
  O  O55  1  0.66460820  0.84552953  0.46657046  1.0
  O  O56  1  0.12125717  0.92434792  0.89283860  1.0
  O  O57  1  0.12125717  0.07565208  0.39283860  1.0
  O  O58  1  0.73613579  0.21349817  0.77514311  1.0
  O  O59  1  0.33539180  0.15447047  0.53342954  1.0
  O  O60  1  0.33946739  0.61266803  0.45320381  1.0
  O  O61  1  0.16460820  0.65447047  0.96657046  1.0
  O  O62  1  0.08416402  0.56029153  0.15026279  1.0
  O  O63  1  0.95744235  0.15484926  0.90414440  1.0
  O  O64  1  0.08416402  0.43970847  0.65026279  1.0
  O  O65  1  0.91583598  0.56029153  0.34973721  1.0
  O  O66  1  0.95744235  0.84515074  0.40414440  1.0
  O  O67  1  0.37874283  0.57565208  0.10716140  1.0
  O  O68  1  0.91583598  0.43970847  0.84973721  1.0
  O  O69  1  0.33946739  0.38733197  0.95320381  1.0
  O  O70  1  0.04255765  0.15484926  0.59585560  1.0
  O  O71  1  0.66053261  0.38733197  0.54679619  1.0
  O  O72  1  0.76386421  0.71349817  0.72485689  1.0
  O  O73  1  0.37874283  0.42434792  0.60716140  1.0
  O  O74  1  0.83539180  0.34552953  0.03342954  1.0
  O  O75  1  0.76386421  0.28650183  0.22485689  1.0
  O  O76  1  0.04255765  0.84515074  0.09585560  1.0
  O  O77  1  0.66053261  0.61266803  0.04679619  1.0
  O  O78  1  0.23613579  0.28650183  0.27514311  1.0
  O  O79  1  0.16460820  0.34552953  0.46657046  1.0
  O  O80  1  0.62125717  0.42434792  0.89283860  1.0
  O  O81  1  0.62125717  0.57565208  0.39283860  1.0
  O  O82  1  0.23613579  0.71349817  0.77514311  1.0
  O  O83  1  0.83539180  0.65447047  0.53342954  1.0
