# generated using pymatgen
data_Ag2O3
_symmetry_space_group_name_H-M   'P 1'
_cell_length_a   3.69181854
_cell_length_b   10.49024062
_cell_length_c   12.88830516
_cell_angle_alpha   90.00000000
_cell_angle_beta   90.00000000
_cell_angle_gamma   90.00000000
_symmetry_Int_Tables_number   1
_chemical_formula_structural   Ag2O3
_chemical_formula_sum   'Ag16 O24'
_cell_volume   499.13911753
_cell_formula_units_Z   8
loop_
 _symmetry_equiv_pos_site_id
 _symmetry_equiv_pos_as_xyz
  1  'x, y, z'
loop_
 _atom_site_type_symbol
 _atom_site_label
 _atom_site_symmetry_multiplicity
 _atom_site_fract_x
 _atom_site_fract_y
 _atom_site_fract_z
 _atom_site_occupancy
  Ag  Ag0  1  0.50058728  0.38230541  0.70338264  1.0
  Ag  Ag1  1  0.25058728  0.36769459  0.95338264  1.0
  Ag  Ag2  1  0.25058728  0.13230541  0.54661736  1.0
  Ag  Ag3  1  0.50058728  0.11769459  0.79661736  1.0
  Ag  Ag4  1  0.00058728  0.38230541  0.20338264  1.0
  Ag  Ag5  1  0.75058728  0.36769459  0.45338264  1.0
  Ag  Ag6  1  0.75058728  0.13230541  0.04661736  1.0
  Ag  Ag7  1  0.00058728  0.11769459  0.29661736  1.0
  Ag  Ag8  1  0.00058728  0.88230541  0.70338264  1.0
  Ag  Ag9  1  0.75058728  0.86769459  0.95338264  1.0
  Ag  Ag10  1  0.75058728  0.63230541  0.54661736  1.0
  Ag  Ag11  1  0.00058728  0.61769459  0.79661736  1.0
  Ag  Ag12  1  0.50058728  0.88230541  0.20338264  1.0
  Ag  Ag13  1  0.25058728  0.86769459  0.45338264  1.0
  Ag  Ag14  1  0.25058728  0.63230541  0.04661736  1.0
  Ag  Ag15  1  0.50058728  0.61769459  0.29661736  1.0
  O  O16  1  0.63217425  0.23303927  0.91758762  1.0
  O  O17  1  0.38217425  0.01696073  0.66758762  1.0
  O  O18  1  0.38217425  0.48303927  0.83241238  1.0
  O  O19  1  0.41271746  0.00000000  0.00000000  1.0
  O  O20  1  0.63217425  0.26696073  0.58241238  1.0
  O  O21  1  0.16271746  0.25000000  0.75000000  1.0
  O  O22  1  0.13217425  0.23303927  0.41758762  1.0
  O  O23  1  0.88217425  0.01696073  0.16758762  1.0
  O  O24  1  0.88217425  0.48303927  0.33241238  1.0
  O  O25  1  0.91271746  0.00000000  0.50000000  1.0
  O  O26  1  0.13217425  0.26696073  0.08241238  1.0
  O  O27  1  0.66271746  0.25000000  0.25000000  1.0
  O  O28  1  0.13217425  0.73303927  0.91758762  1.0
  O  O29  1  0.88217425  0.51696073  0.66758762  1.0
  O  O30  1  0.88217425  0.98303927  0.83241238  1.0
  O  O31  1  0.91271746  0.50000000  0.00000000  1.0
  O  O32  1  0.13217425  0.76696073  0.58241238  1.0
  O  O33  1  0.66271746  0.75000000  0.75000000  1.0
  O  O34  1  0.63217425  0.73303927  0.41758762  1.0
  O  O35  1  0.38217425  0.51696073  0.16758762  1.0
  O  O36  1  0.38217425  0.98303927  0.33241238  1.0
  O  O37  1  0.41271746  0.50000000  0.50000000  1.0
  O  O38  1  0.63217425  0.76696073  0.08241238  1.0
  O  O39  1  0.16271746  0.75000000  0.25000000  1.0
