# generated using pymatgen
data_Ag2HgSI2
_symmetry_space_group_name_H-M   'P 1'
_cell_length_a   7.68244000
_cell_length_b   14.12373399
_cell_length_c   7.31767900
_cell_angle_alpha   90.00000000
_cell_angle_beta   90.00000000
_cell_angle_gamma   90.00000000
_symmetry_Int_Tables_number   1
_chemical_formula_structural   Ag2HgSI2
_chemical_formula_sum   'Ag8 Hg4 S4 I8'
_cell_volume   794.00284965
_cell_formula_units_Z   4
loop_
 _symmetry_equiv_pos_site_id
 _symmetry_equiv_pos_as_xyz
  1  'x, y, z'
loop_
 _atom_site_type_symbol
 _atom_site_label
 _atom_site_symmetry_multiplicity
 _atom_site_fract_x
 _atom_site_fract_y
 _atom_site_fract_z
 _atom_site_occupancy
  Ag  Ag0  1  0.34414600  0.16164900  0.27021800  1.0
  Ag  Ag1  1  0.84414600  0.33835100  0.27021800  1.0
  Ag  Ag2  1  0.65585400  0.16164900  0.77021800  1.0
  Ag  Ag3  1  0.15585400  0.33835100  0.77021800  1.0
  Ag  Ag4  1  0.84414600  0.66164900  0.27021800  1.0
  Ag  Ag5  1  0.34414600  0.83835100  0.27021800  1.0
  Ag  Ag6  1  0.15585400  0.66164900  0.77021800  1.0
  Ag  Ag7  1  0.65585400  0.83835100  0.77021800  1.0
  Hg  Hg8  1  0.02443700  0.00000000  0.91419400  1.0
  Hg  Hg9  1  0.97556300  0.00000000  0.41419400  1.0
  Hg  Hg10  1  0.52443700  0.50000000  0.91419400  1.0
  Hg  Hg11  1  0.47556300  0.50000000  0.41419400  1.0
  S  S12  1  0.20293200  0.00000000  0.18512700  1.0
  S  S13  1  0.79706800  0.00000000  0.68512700  1.0
  S  S14  1  0.70293200  0.50000000  0.18512700  1.0
  S  S15  1  0.29706800  0.50000000  0.68512700  1.0
  I  I16  1  0.29723100  0.15921900  0.66722200  1.0
  I  I17  1  0.79723100  0.34078100  0.66722200  1.0
  I  I18  1  0.20276900  0.34078100  0.16722200  1.0
  I  I19  1  0.70276900  0.15921900  0.16722200  1.0
  I  I20  1  0.79723100  0.65921900  0.66722200  1.0
  I  I21  1  0.29723100  0.84078100  0.66722200  1.0
  I  I22  1  0.70276900  0.84078100  0.16722200  1.0
  I  I23  1  0.20276900  0.65921900  0.16722200  1.0
