# generated using pymatgen
data_Ag4TeO5
_symmetry_space_group_name_H-M   'P 1'
_cell_length_a   16.00484368
_cell_length_b   6.25382734
_cell_length_c   11.32175845
_cell_angle_alpha   90.00000000
_cell_angle_beta   105.05734616
_cell_angle_gamma   90.00000000
_symmetry_Int_Tables_number   1
_chemical_formula_structural   Ag4TeO5
_chemical_formula_sum   'Ag32 Te8 O40'
_cell_volume   1094.30474457
_cell_formula_units_Z   8
loop_
 _symmetry_equiv_pos_site_id
 _symmetry_equiv_pos_as_xyz
  1  'x, y, z'
loop_
 _atom_site_type_symbol
 _atom_site_label
 _atom_site_symmetry_multiplicity
 _atom_site_fract_x
 _atom_site_fract_y
 _atom_site_fract_z
 _atom_site_occupancy
  Ag  Ag0  1  0.56301385  0.73095422  0.52838140  1.0
  Ag  Ag1  1  0.00000000  0.91714274  0.25000000  1.0
  Ag  Ag2  1  0.00000000  0.08285726  0.75000000  1.0
  Ag  Ag3  1  0.90861955  0.63419622  0.74538171  1.0
  Ag  Ag4  1  0.59138045  0.13419622  0.75461829  1.0
  Ag  Ag5  1  0.59138045  0.86580378  0.25461829  1.0
  Ag  Ag6  1  0.79829999  0.90086067  0.26960259  1.0
  Ag  Ag7  1  0.90861955  0.36580378  0.24538171  1.0
  Ag  Ag8  1  0.70170001  0.40086067  0.23039741  1.0
  Ag  Ag9  1  0.75000000  0.25000000  0.00000000  1.0
  Ag  Ag10  1  0.56301385  0.26904578  0.02838140  1.0
  Ag  Ag11  1  0.79829999  0.09913933  0.76960259  1.0
  Ag  Ag12  1  0.93698615  0.23095422  0.97161860  1.0
  Ag  Ag13  1  0.70170001  0.59913933  0.73039741  1.0
  Ag  Ag14  1  0.75000000  0.75000000  0.50000000  1.0
  Ag  Ag15  1  0.93698615  0.76904578  0.47161860  1.0
  Ag  Ag16  1  0.06301385  0.23095422  0.52838140  1.0
  Ag  Ag17  1  0.50000000  0.41714274  0.25000000  1.0
  Ag  Ag18  1  0.50000000  0.58285726  0.75000000  1.0
  Ag  Ag19  1  0.40861955  0.13419622  0.74538171  1.0
  Ag  Ag20  1  0.09138045  0.63419622  0.75461829  1.0
  Ag  Ag21  1  0.09138045  0.36580378  0.25461829  1.0
  Ag  Ag22  1  0.29829999  0.40086067  0.26960259  1.0
  Ag  Ag23  1  0.40861955  0.86580378  0.24538171  1.0
  Ag  Ag24  1  0.20170001  0.90086067  0.23039741  1.0
  Ag  Ag25  1  0.25000000  0.75000000  0.00000000  1.0
  Ag  Ag26  1  0.06301385  0.76904578  0.02838140  1.0
  Ag  Ag27  1  0.29829999  0.59913933  0.76960259  1.0
  Ag  Ag28  1  0.43698615  0.73095422  0.97161860  1.0
  Ag  Ag29  1  0.20170001  0.09913933  0.73039741  1.0
  Ag  Ag30  1  0.25000000  0.25000000  0.50000000  1.0
  Ag  Ag31  1  0.43698615  0.26904578  0.47161860  1.0
  Te  Te32  1  0.85012454  0.27691624  0.50527581  1.0
  Te  Te33  1  0.64987546  0.22308376  0.49472419  1.0
  Te  Te34  1  0.64987546  0.77691624  0.99472419  1.0
  Te  Te35  1  0.85012454  0.72308376  0.00527581  1.0
  Te  Te36  1  0.35012454  0.77691624  0.50527581  1.0
  Te  Te37  1  0.14987546  0.72308376  0.49472419  1.0
  Te  Te38  1  0.14987546  0.27691624  0.99472419  1.0
  Te  Te39  1  0.35012454  0.22308376  0.00527581  1.0
  O  O40  1  0.76028787  0.63052120  0.09334976  1.0
  O  O41  1  0.62371527  0.53347779  0.88863711  1.0
  O  O42  1  0.94170388  0.43665004  0.60722091  1.0
  O  O43  1  0.81846960  0.51835929  0.39723051  1.0
  O  O44  1  0.73971213  0.13052120  0.40665024  1.0
  O  O45  1  0.76028787  0.36947880  0.59334976  1.0
  O  O46  1  0.62371527  0.46652221  0.38863711  1.0
  O  O47  1  0.55829612  0.06334996  0.39277909  1.0
  O  O48  1  0.73971213  0.86947880  0.90665024  1.0
  O  O49  1  0.55829612  0.93665004  0.89277909  1.0
  O  O50  1  0.91226675  0.84909264  0.89978632  1.0
  O  O51  1  0.58773325  0.65090736  0.10021368  1.0
  O  O52  1  0.68153040  0.01835929  0.10276949  1.0
  O  O53  1  0.68153040  0.98164071  0.60276949  1.0
  O  O54  1  0.94170388  0.56334996  0.10722091  1.0
  O  O55  1  0.58773325  0.34909264  0.60021368  1.0
  O  O56  1  0.81846960  0.48164071  0.89723051  1.0
  O  O57  1  0.91226675  0.15090736  0.39978632  1.0
  O  O58  1  0.87628473  0.96652221  0.11136289  1.0
  O  O59  1  0.87628473  0.03347779  0.61136289  1.0
  O  O60  1  0.26028787  0.13052120  0.09334976  1.0
  O  O61  1  0.12371527  0.03347779  0.88863711  1.0
  O  O62  1  0.44170388  0.93665004  0.60722091  1.0
  O  O63  1  0.31846960  0.01835929  0.39723051  1.0
  O  O64  1  0.23971213  0.63052120  0.40665024  1.0
  O  O65  1  0.26028787  0.86947880  0.59334976  1.0
  O  O66  1  0.12371527  0.96652221  0.38863711  1.0
  O  O67  1  0.05829612  0.56334996  0.39277909  1.0
  O  O68  1  0.23971213  0.36947880  0.90665024  1.0
  O  O69  1  0.05829612  0.43665004  0.89277909  1.0
  O  O70  1  0.41226675  0.34909264  0.89978632  1.0
  O  O71  1  0.08773325  0.15090736  0.10021368  1.0
  O  O72  1  0.18153040  0.51835929  0.10276949  1.0
  O  O73  1  0.18153040  0.48164071  0.60276949  1.0
  O  O74  1  0.44170388  0.06334996  0.10722091  1.0
  O  O75  1  0.08773325  0.84909264  0.60021368  1.0
  O  O76  1  0.31846960  0.98164071  0.89723051  1.0
  O  O77  1  0.41226675  0.65090736  0.39978632  1.0
  O  O78  1  0.37628473  0.46652221  0.11136289  1.0
  O  O79  1  0.37628473  0.53347779  0.61136289  1.0
