# generated using pymatgen
data_Ag3BO3
_symmetry_space_group_name_H-M   'P 1'
_cell_length_a   9.90551412
_cell_length_b   9.90551412
_cell_length_c   13.48879292
_cell_angle_alpha   90.00000000
_cell_angle_beta   90.00000000
_cell_angle_gamma   120.00000000
_symmetry_Int_Tables_number   1
_chemical_formula_structural   Ag3BO3
_chemical_formula_sum   'Ag36 B12 O36'
_cell_volume   1146.19302661
_cell_formula_units_Z   12
loop_
 _symmetry_equiv_pos_site_id
 _symmetry_equiv_pos_as_xyz
  1  'x, y, z'
loop_
 _atom_site_type_symbol
 _atom_site_label
 _atom_site_symmetry_multiplicity
 _atom_site_fract_x
 _atom_site_fract_y
 _atom_site_fract_z
 _atom_site_occupancy
  Ag  Ag0  1  0.66519244  0.82809175  0.20908200  1.0
  Ag  Ag1  1  0.99852577  0.50376736  0.37574867  1.0
  Ag  Ag2  1  0.50524158  0.00147423  0.37574867  1.0
  Ag  Ag3  1  0.50376736  0.99852577  0.12425133  1.0
  Ag  Ag4  1  0.17043402  0.83857492  0.95758467  1.0
  Ag  Ag5  1  0.17190825  0.83710069  0.20908200  1.0
  Ag  Ag6  1  0.49475842  0.49623264  0.12425133  1.0
  Ag  Ag7  1  0.00147423  0.50524158  0.12425133  1.0
  Ag  Ag8  1  0.66814089  0.82956598  0.95758467  1.0
  Ag  Ag9  1  0.49623264  0.49475842  0.37574867  1.0
  Ag  Ag10  1  0.16142508  0.33185911  0.95758467  1.0
  Ag  Ag11  1  0.16289931  0.33480756  0.20908200  1.0
  Ag  Ag12  1  0.33185911  0.16142508  0.54241533  1.0
  Ag  Ag13  1  0.66519244  0.83710069  0.70908200  1.0
  Ag  Ag14  1  0.17190825  0.33480756  0.70908200  1.0
  Ag  Ag15  1  0.17043402  0.33185911  0.45758467  1.0
  Ag  Ag16  1  0.83710069  0.17190825  0.29091800  1.0
  Ag  Ag17  1  0.83857492  0.17043402  0.54241533  1.0
  Ag  Ag18  1  0.16142508  0.82956598  0.45758467  1.0
  Ag  Ag19  1  0.66814089  0.83857492  0.45758467  1.0
  Ag  Ag20  1  0.33480756  0.16289931  0.29091800  1.0
  Ag  Ag21  1  0.16289931  0.82809175  0.70908200  1.0
  Ag  Ag22  1  0.82809175  0.66519244  0.29091800  1.0
  Ag  Ag23  1  0.82956598  0.66814089  0.54241533  1.0
  Ag  Ag24  1  0.99852577  0.49475842  0.87574867  1.0
  Ag  Ag25  1  0.33185911  0.17043402  0.04241533  1.0
  Ag  Ag26  1  0.83857492  0.66814089  0.04241533  1.0
  Ag  Ag27  1  0.83710069  0.66519244  0.79091800  1.0
  Ag  Ag28  1  0.50376736  0.50524158  0.62425133  1.0
  Ag  Ag29  1  0.50524158  0.50376736  0.87574867  1.0
  Ag  Ag30  1  0.82809175  0.16289931  0.79091800  1.0
  Ag  Ag31  1  0.33480756  0.17190825  0.79091800  1.0
  Ag  Ag32  1  0.00147423  0.49623264  0.62425133  1.0
  Ag  Ag33  1  0.82956598  0.16142508  0.04241533  1.0
  Ag  Ag34  1  0.49475842  0.99852577  0.62425133  1.0
  Ag  Ag35  1  0.49623264  0.00147423  0.87574867  1.0
  B  B36  1  0.33333333  0.66666667  0.29155580  1.0
  B  B37  1  0.33333333  0.66666667  0.04177754  1.0
  B  B38  1  0.33333333  0.66666667  0.79155580  1.0
  B  B39  1  0.33333333  0.66666667  0.54177754  1.0
  B  B40  1  0.00000000  0.00000000  0.62488913  1.0
  B  B41  1  0.00000000  0.00000000  0.37511087  1.0
  B  B42  1  0.00000000  0.00000000  0.12488913  1.0
  B  B43  1  1.00000000  0.00000000  0.87511087  1.0
  B  B44  1  0.66666667  0.33333333  0.95822246  1.0
  B  B45  1  0.66666667  0.33333333  0.70844420  1.0
  B  B46  1  0.66666667  0.33333333  0.45822246  1.0
  B  B47  1  0.66666667  0.33333333  0.20844420  1.0
  O  O48  1  0.00559135  0.86375147  0.12461202  1.0
  O  O49  1  0.85816011  0.99440865  0.12461202  1.0
  O  O50  1  0.33892469  0.80850655  0.29127868  1.0
  O  O51  1  0.32774198  0.52482678  0.04205465  1.0
  O  O52  1  0.80850655  0.33892469  0.20872132  1.0
  O  O53  1  0.19708480  0.67225802  0.04205465  1.0
  O  O54  1  0.46958187  0.66107531  0.29127868  1.0
  O  O55  1  0.53041813  0.19149345  0.20872132  1.0
  O  O56  1  0.47517322  0.80291520  0.04205465  1.0
  O  O57  1  0.66107531  0.46958187  0.20872132  1.0
  O  O58  1  0.19149345  0.53041813  0.29127868  1.0
  O  O59  1  0.13624853  0.14183989  0.12461202  1.0
  O  O60  1  0.67225802  0.19708480  0.45794535  1.0
  O  O61  1  0.52482678  0.32774198  0.45794535  1.0
  O  O62  1  0.00559135  0.14183989  0.62461202  1.0
  O  O63  1  0.99440865  0.85816011  0.37538798  1.0
  O  O64  1  0.47517322  0.67225802  0.54205465  1.0
  O  O65  1  0.86375147  0.00559135  0.37538798  1.0
  O  O66  1  0.13624853  0.99440865  0.62461202  1.0
  O  O67  1  0.19708480  0.52482678  0.54205465  1.0
  O  O68  1  0.14183989  0.13624853  0.37538798  1.0
  O  O69  1  0.32774198  0.80291520  0.54205465  1.0
  O  O70  1  0.85816011  0.86375147  0.62461202  1.0
  O  O71  1  0.80291520  0.47517322  0.45794535  1.0
  O  O72  1  0.33892469  0.53041813  0.79127868  1.0
  O  O73  1  0.19149345  0.66107531  0.79127868  1.0
  O  O74  1  0.67225802  0.47517322  0.95794535  1.0
  O  O75  1  0.66107531  0.19149345  0.70872132  1.0
  O  O76  1  0.14183989  0.00559135  0.87538798  1.0
  O  O77  1  0.53041813  0.33892469  0.70872132  1.0
  O  O78  1  0.80291520  0.32774198  0.95794535  1.0
  O  O79  1  0.86375147  0.85816011  0.87538798  1.0
  O  O80  1  0.80850655  0.46958187  0.70872132  1.0
  O  O81  1  0.99440865  0.13624853  0.87538798  1.0
  O  O82  1  0.52482678  0.19708480  0.95794535  1.0
  O  O83  1  0.46958187  0.80850655  0.79127868  1.0
