# generated using pymatgen
data_Ag3SbS3
_symmetry_space_group_name_H-M   'P 1'
_cell_length_a   6.27094393
_cell_length_b   15.96725416
_cell_length_c   6.90364561
_cell_angle_alpha   90.00000000
_cell_angle_beta   116.26345271
_cell_angle_gamma   90.00000000
_symmetry_Int_Tables_number   1
_chemical_formula_structural   Ag3SbS3
_chemical_formula_sum   'Ag12 Sb4 S12'
_cell_volume   619.90076061
_cell_formula_units_Z   4
loop_
 _symmetry_equiv_pos_site_id
 _symmetry_equiv_pos_as_xyz
  1  'x, y, z'
loop_
 _atom_site_type_symbol
 _atom_site_label
 _atom_site_symmetry_multiplicity
 _atom_site_fract_x
 _atom_site_fract_y
 _atom_site_fract_z
 _atom_site_occupancy
  Ag  Ag0  1  0.28986132  0.81006087  0.06956890  1.0
  Ag  Ag1  1  0.69084439  0.74285758  0.47766876  1.0
  Ag  Ag2  1  0.21013868  0.31006087  0.93043110  1.0
  Ag  Ag3  1  0.53093388  0.90098135  0.59187896  1.0
  Ag  Ag4  1  0.80915561  0.24285758  0.52233124  1.0
  Ag  Ag5  1  0.03093388  0.59901865  0.59187896  1.0
  Ag  Ag6  1  0.71013868  0.18993913  0.93043110  1.0
  Ag  Ag7  1  0.30915561  0.25714242  0.52233124  1.0
  Ag  Ag8  1  0.46906612  0.09901865  0.40812104  1.0
  Ag  Ag9  1  0.96906612  0.40098135  0.40812104  1.0
  Ag  Ag10  1  0.78986132  0.68993913  0.06956890  1.0
  Ag  Ag11  1  0.19084439  0.75714242  0.47766876  1.0
  Sb  Sb12  1  0.32430722  0.55148963  0.19597998  1.0
  Sb  Sb13  1  0.17569278  0.05148963  0.80402002  1.0
  Sb  Sb14  1  0.67569278  0.44851037  0.80402002  1.0
  Sb  Sb15  1  0.82430722  0.94851037  0.19597998  1.0
  S  S16  1  0.76775921  0.05619654  0.77869000  1.0
  S  S17  1  0.26775921  0.44380346  0.77869000  1.0
  S  S18  1  0.73224079  0.55619654  0.22131000  1.0
  S  S19  1  0.37088909  0.16749581  0.05233655  1.0
  S  S20  1  0.44504163  0.63598296  0.53360697  1.0
  S  S21  1  0.05495837  0.13598296  0.46639303  1.0
  S  S22  1  0.23224079  0.94380346  0.22131000  1.0
  S  S23  1  0.55495837  0.36401704  0.46639303  1.0
  S  S24  1  0.94504163  0.86401704  0.53360697  1.0
  S  S25  1  0.12911091  0.66749581  0.94766345  1.0
  S  S26  1  0.87088909  0.33250419  0.05233655  1.0
  S  S27  1  0.62911091  0.83250419  0.94766345  1.0
