# generated using pymatgen
data_AgAs(XeF5)2
_symmetry_space_group_name_H-M   'P 1'
_cell_length_a   8.78392200
_cell_length_b   8.78392200
_cell_length_c   12.87518601
_cell_angle_alpha   90.00000000
_cell_angle_beta   90.00000000
_cell_angle_gamma   90.00000000
_symmetry_Int_Tables_number   1
_chemical_formula_structural   AgAs(XeF5)2
_chemical_formula_sum   'Ag4 As4 Xe8 F40'
_cell_volume   993.41440544
_cell_formula_units_Z   4
loop_
 _symmetry_equiv_pos_site_id
 _symmetry_equiv_pos_as_xyz
  1  'x, y, z'
loop_
 _atom_site_type_symbol
 _atom_site_label
 _atom_site_symmetry_multiplicity
 _atom_site_fract_x
 _atom_site_fract_y
 _atom_site_fract_z
 _atom_site_occupancy
  Ag  Ag0  1  0.00000000  0.50000000  0.00000000  1.0
  Ag  Ag1  1  0.50000000  0.00000000  0.00000000  1.0
  Ag  Ag2  1  0.50000000  0.00000000  0.50000000  1.0
  Ag  Ag3  1  0.00000000  0.50000000  0.50000000  1.0
  As  As4  1  0.00000000  0.00000000  0.00000000  1.0
  As  As5  1  0.50000000  0.50000000  0.00000000  1.0
  As  As6  1  0.50000000  0.50000000  0.50000000  1.0
  As  As7  1  0.00000000  0.00000000  0.50000000  1.0
  Xe  Xe8  1  0.25000000  0.25000000  0.25000000  1.0
  Xe  Xe9  1  0.25000000  0.75000000  0.25000000  1.0
  Xe  Xe10  1  0.75000000  0.75000000  0.25000000  1.0
  Xe  Xe11  1  0.75000000  0.25000000  0.25000000  1.0
  Xe  Xe12  1  0.75000000  0.75000000  0.75000000  1.0
  Xe  Xe13  1  0.75000000  0.25000000  0.75000000  1.0
  Xe  Xe14  1  0.25000000  0.25000000  0.75000000  1.0
  Xe  Xe15  1  0.25000000  0.75000000  0.75000000  1.0
  F  F16  1  0.57542850  0.31254950  0.00000000  1.0
  F  F17  1  0.50000000  0.50000000  0.36256000  1.0
  F  F18  1  0.00000000  0.00000000  0.36256000  1.0
  F  F19  1  0.42457150  0.68745050  0.00000000  1.0
  F  F20  1  0.11676550  0.61676550  0.14690050  1.0
  F  F21  1  0.11676550  0.38323450  0.35309950  1.0
  F  F22  1  0.92457150  0.81254950  0.00000000  1.0
  F  F23  1  0.68745050  0.57542850  0.00000000  1.0
  F  F24  1  0.38323450  0.88323450  0.35309950  1.0
  F  F25  1  0.00000000  0.00000000  0.13744000  1.0
  F  F26  1  0.88323450  0.38323450  0.14690050  1.0
  F  F27  1  0.81254950  0.07542850  0.00000000  1.0
  F  F28  1  0.07542850  0.18745050  0.00000000  1.0
  F  F29  1  0.61676550  0.88323450  0.14690050  1.0
  F  F30  1  0.31254950  0.42457150  0.00000000  1.0
  F  F31  1  0.61676550  0.11676550  0.35309950  1.0
  F  F32  1  0.50000000  0.50000000  0.13744000  1.0
  F  F33  1  0.88323450  0.61676550  0.35309950  1.0
  F  F34  1  0.38323450  0.11676550  0.14690050  1.0
  F  F35  1  0.18745050  0.92457150  0.00000000  1.0
  F  F36  1  0.07542850  0.81254950  0.50000000  1.0
  F  F37  1  0.00000000  0.00000000  0.86256000  1.0
  F  F38  1  0.50000000  0.50000000  0.86256000  1.0
  F  F39  1  0.92457150  0.18745050  0.50000000  1.0
  F  F40  1  0.61676550  0.11676550  0.64690050  1.0
  F  F41  1  0.61676550  0.88323450  0.85309950  1.0
  F  F42  1  0.42457150  0.31254950  0.50000000  1.0
  F  F43  1  0.18745050  0.07542850  0.50000000  1.0
  F  F44  1  0.88323450  0.38323450  0.85309950  1.0
  F  F45  1  0.50000000  0.50000000  0.63744000  1.0
  F  F46  1  0.38323450  0.88323450  0.64690050  1.0
  F  F47  1  0.31254950  0.57542850  0.50000000  1.0
  F  F48  1  0.57542850  0.68745050  0.50000000  1.0
  F  F49  1  0.11676550  0.38323450  0.64690050  1.0
  F  F50  1  0.81254950  0.92457150  0.50000000  1.0
  F  F51  1  0.11676550  0.61676550  0.85309950  1.0
  F  F52  1  0.00000000  0.00000000  0.63744000  1.0
  F  F53  1  0.38323450  0.11676550  0.85309950  1.0
  F  F54  1  0.88323450  0.61676550  0.64690050  1.0
  F  F55  1  0.68745050  0.42457150  0.50000000  1.0
