# generated using pymatgen
data_Ag2SeO4
_symmetry_space_group_name_H-M   'P 1'
_cell_length_a   6.00234200
_cell_length_b   6.45798591
_cell_length_c   7.07717802
_cell_angle_alpha   78.63422781
_cell_angle_beta   64.90861642
_cell_angle_gamma   62.30773938
_symmetry_Int_Tables_number   1
_chemical_formula_structural   Ag2SeO4
_chemical_formula_sum   'Ag4 Se2 O8'
_cell_volume   219.98707927
_cell_formula_units_Z   2
loop_
 _symmetry_equiv_pos_site_id
 _symmetry_equiv_pos_as_xyz
  1  'x, y, z'
loop_
 _atom_site_type_symbol
 _atom_site_label
 _atom_site_symmetry_multiplicity
 _atom_site_fract_x
 _atom_site_fract_y
 _atom_site_fract_z
 _atom_site_occupancy
  Ag  Ag0  1  0.93490100  0.64398700  0.24342600  1.0
  Ag  Ag1  1  0.32432300  0.85597900  0.24270500  1.0
  Ag  Ag2  1  0.06861200  0.35217300  0.74619500  1.0
  Ag  Ag3  1  0.66747300  0.15349700  0.75296900  1.0
  Se  Se4  1  0.62073700  0.24496300  0.25493200  1.0
  Se  Se5  1  0.37426700  0.75464000  0.74356600  1.0
  O  O6  1  0.76173100  0.42530500  0.10182200  1.0
  O  O7  1  0.79236000  0.07034800  0.40774500  1.0
  O  O8  1  0.29762600  0.42424500  0.39899000  1.0
  O  O9  1  0.63750800  0.07594900  0.09502500  1.0
  O  O10  1  0.23978700  0.56689900  0.89954800  1.0
  O  O11  1  0.19365200  0.92959000  0.60394900  1.0
  O  O12  1  0.36853800  0.92258800  0.90704300  1.0
  O  O13  1  0.69833000  0.56565800  0.60407800  1.0
