# generated using pymatgen
data_Ag13Bi15I64
_symmetry_space_group_name_H-M   'P 1'
_cell_length_a   8.89447238
_cell_length_b   9.03418954
_cell_length_c   59.56926791
_cell_angle_alpha   92.28065434
_cell_angle_beta   90.24422773
_cell_angle_gamma   117.70363330
_symmetry_Int_Tables_number   1
_chemical_formula_structural   Ag13Bi15I64
_chemical_formula_sum   'Ag13 Bi15 I64'
_cell_volume   4233.16916119
_cell_formula_units_Z   1
loop_
 _symmetry_equiv_pos_site_id
 _symmetry_equiv_pos_as_xyz
  1  'x, y, z'
loop_
 _atom_site_type_symbol
 _atom_site_label
 _atom_site_symmetry_multiplicity
 _atom_site_fract_x
 _atom_site_fract_y
 _atom_site_fract_z
 _atom_site_occupancy
  Ag  Ag0  1  0.00258436  0.50001279  0.00134100  1.0
  Ag  Ag1  1  0.62125449  0.74999242  0.87165422  1.0
  Ag  Ag2  1  0.24103475  0.01829452  0.74476718  1.0
  Ag  Ag3  1  0.86688682  0.24660741  0.62306160  1.0
  Ag  Ag4  1  0.38338901  0.24551635  0.62207820  1.0
  Ag  Ag5  1  0.61890951  0.74704360  0.37748045  1.0
  Ag  Ag6  1  0.50012375  0.50025595  0.50000104  1.0
  Ag  Ag7  1  0.99933653  0.50057169  0.50007454  1.0
  Ag  Ag8  1  0.13020575  0.74802955  0.37752963  1.0
  Ag  Ag9  1  0.86409859  0.24658434  0.12963275  1.0
  Ag  Ag10  1  0.76020263  0.99775389  0.25435136  1.0
  Ag  Ag11  1  0.24134603  0.99678295  0.25412934  1.0
  Ag  Ag12  1  0.38863396  0.24855622  0.12953420  1.0
  Bi  Bi13  1  0.99703359  0.00393388  0.00058732  1.0
  Bi  Bi14  1  0.49429592  0.50444024  0.00126165  1.0
  Bi  Bi15  1  0.13080095  0.74760637  0.87362701  1.0
  Bi  Bi16  1  0.80627246  0.62564632  0.93757689  1.0
  Bi  Bi17  1  0.09193430  0.14446687  0.68402124  1.0
  Bi  Bi18  1  0.62916053  0.24189788  0.87341844  1.0
  Bi  Bi19  1  0.76679915  0.01169676  0.74628317  1.0
  Bi  Bi20  1  0.42385299  0.85177243  0.80458213  1.0
  Bi  Bi21  1  0.68586326  0.37776049  0.56201947  1.0
  Bi  Bi22  1  0.30915248  0.61716890  0.43754929  1.0
  Bi  Bi23  1  0.94348257  0.88962553  0.31785145  1.0
  Bi  Bi24  1  0.38257231  0.76229381  0.12660898  1.0
  Bi  Bi25  1  0.18626082  0.37488314  0.06694290  1.0
  Bi  Bi26  1  0.75878319  0.51455805  0.25219827  1.0
  Bi  Bi27  1  0.56735661  0.13699481  0.19078751  1.0
  I  I28  1  0.67011863  0.33183476  0.97042666  1.0
  I  I29  1  0.46265881  0.93429773  0.90456668  1.0
  I  I30  1  0.13129939  0.80180732  0.96918556  1.0
  I  I31  1  0.61993046  0.79866358  0.96910968  1.0
  I  I32  1  0.29015506  0.56965275  0.84606717  1.0
  I  I33  1  0.97071342  0.42669251  0.90374685  1.0
  I  I34  1  0.49129286  0.45120577  0.90516941  1.0
  I  I35  1  0.15535136  0.30901067  0.97066974  1.0
  I  I36  1  0.08853798  0.14596001  0.77841453  1.0
  I  I37  1  0.77600284  0.05583993  0.84557228  1.0
  I  I38  1  0.28271224  0.06745238  0.84559997  1.0
  I  I39  1  0.95471564  0.91651339  0.90519031  1.0
  I  I40  1  0.88935247  0.80781130  0.71827680  1.0
  I  I41  1  0.58964425  0.67828714  0.78220834  1.0
  I  I42  1  0.10531901  0.69384949  0.78119622  1.0
  I  I43  1  0.78939229  0.56589527  0.84506428  1.0
  I  I44  1  0.69417392  0.39078507  0.64717338  1.0
  I  I45  1  0.39015896  0.30472575  0.71736175  1.0
  I  I46  1  0.90286362  0.30679993  0.71847640  1.0
  I  I47  1  0.59669556  0.17732754  0.78250250  1.0
  I  I48  1  0.52049436  0.05060947  0.58884643  1.0
  I  I49  1  0.23732413  0.97146443  0.65398829  1.0
  I  I50  1  0.40948771  0.84017265  0.72447235  1.0
  I  I51  1  0.75302984  0.98619753  0.65274308  1.0
  I  I52  1  0.31562605  0.63652285  0.52352846  1.0
  I  I53  1  0.00311276  0.52037968  0.59549574  1.0
  I  I54  1  0.51652826  0.53143665  0.59390557  1.0
  I  I55  1  0.23080501  0.45312191  0.65989458  1.0
  I  I56  1  0.15449500  0.30259657  0.46436996  1.0
  I  I57  1  0.86373946  0.22947750  0.52858713  1.0
  I  I58  1  0.37321306  0.22964991  0.52872836  1.0
  I  I59  1  0.05985278  0.11840802  0.60066854  1.0
  I  I60  1  0.93878220  0.88111361  0.39964732  1.0
  I  I61  1  0.62757115  0.77054425  0.47149360  1.0
  I  I62  1  0.13568743  0.77073549  0.47149915  1.0
  I  I63  1  0.84682907  0.69733591  0.53574458  1.0
  I  I64  1  0.78775523  0.57119702  0.34225951  1.0
  I  I65  1  0.48029651  0.46098991  0.40684519  1.0
  I  I66  1  0.58666525  0.17328210  0.27629870  1.0
  I  I67  1  0.98910688  0.46358638  0.40649900  1.0
  I  I68  1  0.68401984  0.36396105  0.47631240  1.0
  I  I69  1  0.26144590  0.03701746  0.34487701  1.0
  I  I70  1  0.77040900  0.04128479  0.34456692  1.0
  I  I71  1  0.46979393  0.94280076  0.40893148  1.0
  I  I72  1  0.42244216  0.84626794  0.22025114  1.0
  I  I73  1  0.08028345  0.66556601  0.28015979  1.0
  I  I74  1  0.21069460  0.42258378  0.15089012  1.0
  I  I75  1  0.58842861  0.67137363  0.28028333  1.0
  I  I76  1  0.30727973  0.60792982  0.35317875  1.0
  I  I77  1  0.89825880  0.31007931  0.21615038  1.0
  I  I78  1  0.41313438  0.31858410  0.21635169  1.0
  I  I79  1  0.08488199  0.16913549  0.27960432  1.0
  I  I80  1  0.03970396  0.08528377  0.09518317  1.0
  I  I81  1  0.70495414  0.91564152  0.15505377  1.0
  I  I82  1  0.21573565  0.92439690  0.15543389  1.0
  I  I83  1  0.91145311  0.82566423  0.22317132  1.0
  I  I84  1  0.84402949  0.69242026  0.02920839  1.0
  I  I85  1  0.52339117  0.56312409  0.09244444  1.0
  I  I86  1  0.03696857  0.56741633  0.09181589  1.0
  I  I87  1  0.71197544  0.42368415  0.15359413  1.0
  I  I88  1  0.37337815  0.21295560  0.03279272  1.0
  I  I89  1  0.86211565  0.19964162  0.03077921  1.0
  I  I90  1  0.53244216  0.07057543  0.09730085  1.0
  I  I91  1  0.32966181  0.67863055  0.02921959  1.0
