# generated using pymatgen
data_Ag8Ge3O10
_symmetry_space_group_name_H-M   'P 1'
_cell_length_a   12.35788400
_cell_length_b   10.93872800
_cell_length_c   18.86769396
_cell_angle_alpha   90.00000000
_cell_angle_beta   92.24431944
_cell_angle_gamma   90.00000000
_symmetry_Int_Tables_number   1
_chemical_formula_structural   Ag8Ge3O10
_chemical_formula_sum   'Ag64 Ge24 O80'
_cell_volume   2548.56958635
_cell_formula_units_Z   8
loop_
 _symmetry_equiv_pos_site_id
 _symmetry_equiv_pos_as_xyz
  1  'x, y, z'
loop_
 _atom_site_type_symbol
 _atom_site_label
 _atom_site_symmetry_multiplicity
 _atom_site_fract_x
 _atom_site_fract_y
 _atom_site_fract_z
 _atom_site_occupancy
  Ag  Ag0  1  0.77846700  0.36207700  0.94797000  1.0
  Ag  Ag1  1  0.65681300  0.38172500  0.38748000  1.0
  Ag  Ag2  1  0.52925100  0.36215700  0.03036700  1.0
  Ag  Ag3  1  0.43452700  0.39323600  0.47532300  1.0
  Ag  Ag4  1  0.66157200  0.88718900  0.18952700  1.0
  Ag  Ag5  1  0.29440900  0.10848500  0.43156100  1.0
  Ag  Ag6  1  0.19556600  0.86128200  0.37760000  1.0
  Ag  Ag7  1  0.52925100  0.63784300  0.53036700  1.0
  Ag  Ag8  1  0.06000800  0.38738600  0.21824000  1.0
  Ag  Ag9  1  0.43452700  0.60676400  0.97532300  1.0
  Ag  Ag10  1  0.35346900  0.34941600  0.30086800  1.0
  Ag  Ag11  1  0.06000800  0.61261400  0.71824000  1.0
  Ag  Ag12  1  0.15485100  0.11472300  0.67568900  1.0
  Ag  Ag13  1  0.66157200  0.11281100  0.68952700  1.0
  Ag  Ag14  1  0.70714600  0.85770000  0.37655100  1.0
  Ag  Ag15  1  0.23976200  0.37968700  0.75547900  1.0
  Ag  Ag16  1  0.24403900  0.60974100  0.43164200  1.0
  Ag  Ag17  1  0.56310500  0.60642300  0.72863500  1.0
  Ag  Ag18  1  0.56563200  0.14181400  0.52210700  1.0
  Ag  Ag19  1  0.87210500  0.63671200  0.82000900  1.0
  Ag  Ag20  1  0.00037700  0.13312500  0.15163700  1.0
  Ag  Ag21  1  0.65681300  0.61827500  0.88748000  1.0
  Ag  Ag22  1  0.15453300  0.64853800  0.88387600  1.0
  Ag  Ag23  1  0.77846700  0.63792300  0.44797000  1.0
  Ag  Ag24  1  0.85181000  0.86311400  0.08681700  1.0
  Ag  Ag25  1  0.94673200  0.37235600  0.48688100  1.0
  Ag  Ag26  1  0.48207900  0.11726000  0.14738900  1.0
  Ag  Ag27  1  0.35346900  0.65058400  0.80086800  1.0
  Ag  Ag28  1  0.72088400  0.36784900  0.75485400  1.0
  Ag  Ag29  1  0.01444700  0.35929300  0.03144900  1.0
  Ag  Ag30  1  0.29440900  0.89151500  0.93156100  1.0
  Ag  Ag31  1  0.06791300  0.12047700  0.51734500  1.0
  Ag  Ag32  1  0.77461100  0.12172200  0.42087700  1.0
  Ag  Ag33  1  0.94673200  0.62764400  0.98688100  1.0
  Ag  Ag34  1  0.87210500  0.36328800  0.32000900  1.0
  Ag  Ag35  1  0.22578100  0.87394300  0.73813700  1.0
  Ag  Ag36  1  0.49402500  0.62399300  0.17059200  1.0
  Ag  Ag37  1  0.95915100  0.64432400  0.14500400  1.0
  Ag  Ag38  1  0.72088400  0.63215100  0.25485400  1.0
  Ag  Ag39  1  0.36270500  0.84672000  0.10464200  1.0
  Ag  Ag40  1  0.48207900  0.88274000  0.64738900  1.0
  Ag  Ag41  1  0.24403900  0.39025900  0.93164200  1.0
  Ag  Ag42  1  0.00037700  0.86687500  0.65163700  1.0
  Ag  Ag43  1  0.15453300  0.35146200  0.38387600  1.0
  Ag  Ag44  1  0.85181000  0.13688600  0.58681700  1.0
  Ag  Ag45  1  0.47710500  0.11316700  0.97434600  1.0
  Ag  Ag46  1  0.56563200  0.85818600  0.02210700  1.0
  Ag  Ag47  1  0.22578100  0.12605700  0.23813700  1.0
  Ag  Ag48  1  0.56310500  0.39357700  0.22863500  1.0
  Ag  Ag49  1  0.15485100  0.88527700  0.17568900  1.0
  Ag  Ag50  1  0.95915100  0.35567600  0.64500400  1.0
  Ag  Ag51  1  0.01444700  0.64070700  0.53144900  1.0
  Ag  Ag52  1  0.36270500  0.15328000  0.60464200  1.0
  Ag  Ag53  1  0.06791300  0.87952300  0.01734500  1.0
  Ag  Ag54  1  0.49402500  0.37600700  0.67059200  1.0
  Ag  Ag55  1  0.76085400  0.13814800  0.26114200  1.0
  Ag  Ag56  1  0.77461100  0.87827800  0.92087700  1.0
  Ag  Ag57  1  0.23976200  0.62031300  0.25547900  1.0
  Ag  Ag58  1  0.70714600  0.14230000  0.87655100  1.0
  Ag  Ag59  1  0.19556600  0.13871800  0.87760000  1.0
  Ag  Ag60  1  0.94319000  0.13976300  0.96034900  1.0
  Ag  Ag61  1  0.94319000  0.86023700  0.46034900  1.0
  Ag  Ag62  1  0.47710500  0.88683300  0.47434600  1.0
  Ag  Ag63  1  0.76085400  0.86185200  0.76114200  1.0
  Ge  Ge64  1  0.00259100  0.38125200  0.85478700  1.0
  Ge  Ge65  1  0.00259100  0.61874800  0.35478700  1.0
  Ge  Ge66  1  0.01354500  0.88324000  0.83931000  1.0
  Ge  Ge67  1  0.49361400  0.62857500  0.34838400  1.0
  Ge  Ge68  1  0.92409200  0.12844400  0.76808000  1.0
  Ge  Ge69  1  0.79479800  0.62241000  0.64096800  1.0
  Ge  Ge70  1  0.41528600  0.87951900  0.27498100  1.0
  Ge  Ge71  1  0.51995900  0.86545700  0.84942300  1.0
  Ge  Ge72  1  0.49361400  0.37142500  0.84838400  1.0
  Ge  Ge73  1  0.22861900  0.12664600  0.05973100  1.0
  Ge  Ge74  1  0.51995900  0.13454300  0.34942300  1.0
  Ge  Ge75  1  0.01354500  0.11676000  0.33931000  1.0
  Ge  Ge76  1  0.70595500  0.62057300  0.06736900  1.0
  Ge  Ge77  1  0.92409200  0.87155600  0.26808000  1.0
  Ge  Ge78  1  0.71960800  0.12149500  0.05611200  1.0
  Ge  Ge79  1  0.19735600  0.62799600  0.06420100  1.0
  Ge  Ge80  1  0.19735600  0.37200400  0.56420100  1.0
  Ge  Ge81  1  0.22861900  0.87335400  0.55973100  1.0
  Ge  Ge82  1  0.31004000  0.61797600  0.62560600  1.0
  Ge  Ge83  1  0.41528600  0.12048100  0.77498100  1.0
  Ge  Ge84  1  0.70595500  0.37942700  0.56736900  1.0
  Ge  Ge85  1  0.79479800  0.37759000  0.14096800  1.0
  Ge  Ge86  1  0.31004000  0.38202400  0.12560600  1.0
  Ge  Ge87  1  0.71960800  0.87850500  0.55611200  1.0
  O  O88  1  0.27744200  0.16140400  0.77205900  1.0
  O  O89  1  0.75209400  0.41475200  0.22527500  1.0
  O  O90  1  0.97090000  0.08922300  0.68517900  1.0
  O  O91  1  0.47785100  0.86193600  0.19314500  1.0
  O  O92  1  0.15405100  0.15335900  0.34115600  1.0
  O  O93  1  0.56679700  0.33892800  0.56752500  1.0
  O  O94  1  0.00411600  0.94990400  0.33707100  1.0
  O  O95  1  0.71055900  0.54620300  0.57268400  1.0
  O  O96  1  0.24570600  0.38582000  0.20708900  1.0
  O  O97  1  0.09133100  0.08065300  0.05451500  1.0
  O  O98  1  0.95418300  0.16361500  0.41858700  1.0
  O  O99  1  0.94647300  0.81588000  0.76379900  1.0
  O  O100  1  0.77174600  0.78367700  0.62828300  1.0
  O  O101  1  0.06384000  0.71557800  0.42156700  1.0
  O  O102  1  0.76456100  0.33333333  0.48787300  1.0
  O  O103  1  0.31562400  0.46839800  0.58349200  1.0
  O  O104  1  0.93841400  0.29012900  0.78430100  1.0
  O  O105  1  0.63148900  0.58382300  0.35428100  1.0
  O  O106  1  0.29693800  0.08458100  0.98221600  1.0
  O  O107  1  0.65812900  0.21162400  0.98639700  1.0
  O  O108  1  0.29493700  0.07086300  0.13859900  1.0
  O  O109  1  0.62243200  0.02546100  0.09373300  1.0
  O  O110  1  0.23018300  0.70623300  0.56133800  1.0
  O  O111  1  0.60540700  0.21720900  0.29479400  1.0
  O  O112  1  0.89948400  0.52856600  0.39115800  1.0
  O  O113  1  0.59797900  0.95063400  0.91341700  1.0
  O  O114  1  0.77174600  0.21632300  0.12828300  1.0
  O  O115  1  0.29693800  0.91541900  0.48221600  1.0
  O  O116  1  0.71055900  0.45379700  0.07268400  1.0
  O  O117  1  0.93169200  0.41350000  0.12770000  1.0
  O  O118  1  0.31562400  0.53160200  0.08349200  1.0
  O  O119  1  0.82790100  0.96446400  0.52336700  1.0
  O  O120  1  0.47785100  0.13806400  0.69314500  1.0
  O  O121  1  0.12003100  0.55443200  0.99504200  1.0
  O  O122  1  0.82790100  0.03553600  0.02336700  1.0
  O  O123  1  0.42549000  0.40806400  0.92656400  1.0
  O  O124  1  0.42859100  0.75920500  0.88819600  1.0
  O  O125  1  0.60540700  0.78279100  0.79479400  1.0
  O  O126  1  0.65812900  0.78837600  0.48639700  1.0
  O  O127  1  0.42549000  0.59193600  0.42656400  1.0
  O  O128  1  0.44512800  0.33089600  0.13456200  1.0
  O  O129  1  0.78625400  0.91044700  0.27820700  1.0
  O  O130  1  0.89948400  0.47143400  0.89115800  1.0
  O  O131  1  0.42561300  0.96243900  0.80005300  1.0
  O  O132  1  0.78625400  0.08955300  0.77820700  1.0
  O  O133  1  0.10160500  0.47428200  0.81741700  1.0
  O  O134  1  0.97090000  0.91077700  0.18517900  1.0
  O  O135  1  0.95418300  0.83638500  0.91858700  1.0
  O  O136  1  0.24688400  0.23125200  0.53011300  1.0
  O  O137  1  0.63148900  0.41617700  0.85428100  1.0
  O  O138  1  0.49191600  0.79579200  0.34271400  1.0
  O  O139  1  0.09133100  0.91934700  0.55451500  1.0
  O  O140  1  0.62243200  0.97453900  0.59373300  1.0
  O  O141  1  0.59797900  0.04936600  0.41341700  1.0
  O  O142  1  0.42859100  0.24079500  0.38819600  1.0
  O  O143  1  0.42726000  0.56488500  0.27183400  1.0
  O  O144  1  0.13432700  0.34174600  0.64444400  1.0
  O  O145  1  0.77906000  0.31692500  0.64251600  1.0
  O  O146  1  0.23018300  0.29376700  0.06133800  1.0
  O  O147  1  0.06384000  0.28442200  0.92156700  1.0
  O  O148  1  0.24688400  0.76874800  0.03011300  1.0
  O  O149  1  0.77906000  0.68307500  0.14251600  1.0
  O  O150  1  0.15405100  0.84664100  0.84115600  1.0
  O  O151  1  0.12003100  0.44556800  0.49504200  1.0
  O  O152  1  0.13432700  0.65825400  0.14444400  1.0
  O  O153  1  0.42726000  0.43511500  0.77183400  1.0
  O  O154  1  0.49191600  0.20420800  0.84271400  1.0
  O  O155  1  0.10160500  0.52571800  0.31741700  1.0
  O  O156  1  0.42561300  0.03756100  0.30005300  1.0
  O  O157  1  0.29493700  0.92913700  0.63859900  1.0
  O  O158  1  0.94647300  0.18412000  0.26379900  1.0
  O  O159  1  0.00411600  0.05009600  0.83707100  1.0
  O  O160  1  0.44512800  0.66910400  0.63456200  1.0
  O  O161  1  0.27744200  0.83859600  0.27205900  1.0
  O  O162  1  0.56679700  0.66107200  0.06752500  1.0
  O  O163  1  0.75209400  0.58524800  0.72527500  1.0
  O  O164  1  0.24570600  0.61418000  0.70708900  1.0
  O  O165  1  0.76456100  0.66666667  0.98787300  1.0
  O  O166  1  0.93841400  0.70987100  0.28430100  1.0
  O  O167  1  0.93169200  0.58650000  0.62770000  1.0
