# generated using pymatgen
data_Ag3SI
_symmetry_space_group_name_H-M   'P 1'
_cell_length_a   6.93319026
_cell_length_b   6.93816149
_cell_length_c   7.01098541
_cell_angle_alpha   118.47595891
_cell_angle_beta   118.84720723
_cell_angle_gamma   91.89603836
_symmetry_Int_Tables_number   1
_chemical_formula_structural   Ag3SI
_chemical_formula_sum   'Ag6 S2 I2'
_cell_volume   244.03083775
_cell_formula_units_Z   2
loop_
 _symmetry_equiv_pos_site_id
 _symmetry_equiv_pos_as_xyz
  1  'x, y, z'
loop_
 _atom_site_type_symbol
 _atom_site_label
 _atom_site_symmetry_multiplicity
 _atom_site_fract_x
 _atom_site_fract_y
 _atom_site_fract_z
 _atom_site_occupancy
  Ag  Ag0  1  0.43405500  0.93313900  0.36412400  1.0
  Ag  Ag1  1  0.56416600  0.94815900  0.01921000  1.0
  Ag  Ag2  1  0.44686700  0.45624100  0.40557200  1.0
  Ag  Ag3  1  0.93422400  0.42378400  0.35302300  1.0
  Ag  Ag4  1  0.94803100  0.56415200  0.01689700  1.0
  Ag  Ag5  1  0.05358300  0.06125000  0.62242700  1.0
  S  S6  1  0.26185200  0.76572800  0.52409100  1.0
  S  S7  1  0.75746700  0.26853700  0.52071300  1.0
  I  I8  1  0.99151000  0.99122400  0.98495000  1.0
  I  I9  1  0.48997000  0.49052400  0.98307700  1.0
