# generated using pymatgen
data_Ag2SnO3
_symmetry_space_group_name_H-M   'P 1'
_cell_length_a   5.66140748
_cell_length_b   5.66140748
_cell_length_c   12.72977534
_cell_angle_alpha   90.00000000
_cell_angle_beta   90.00000000
_cell_angle_gamma   120.00000000
_symmetry_Int_Tables_number   1
_chemical_formula_structural   Ag2SnO3
_chemical_formula_sum   'Ag8 Sn4 O12'
_cell_volume   353.34601647
_cell_formula_units_Z   4
loop_
 _symmetry_equiv_pos_site_id
 _symmetry_equiv_pos_as_xyz
  1  'x, y, z'
loop_
 _atom_site_type_symbol
 _atom_site_label
 _atom_site_symmetry_multiplicity
 _atom_site_fract_x
 _atom_site_fract_y
 _atom_site_fract_z
 _atom_site_occupancy
  Ag  Ag0  1  0.00000000  0.67865891  0.50000000  1.0
  Ag  Ag1  1  0.00000000  0.32134109  0.00000000  1.0
  Ag  Ag2  1  0.33333333  0.66666667  0.75000000  1.0
  Ag  Ag3  1  0.32134109  0.32134109  0.50000000  1.0
  Ag  Ag4  1  0.32134109  0.00000000  0.00000000  1.0
  Ag  Ag5  1  0.67865891  0.67865891  0.00000000  1.0
  Ag  Ag6  1  0.66666667  0.33333333  0.25000000  1.0
  Ag  Ag7  1  0.67865891  0.00000000  0.50000000  1.0
  Sn  Sn8  1  0.33333333  0.66666667  0.25000000  1.0
  Sn  Sn9  1  0.00000000  0.00000000  0.25000000  1.0
  Sn  Sn10  1  0.00000000  0.00000000  0.75000000  1.0
  Sn  Sn11  1  0.66666667  0.33333333  0.75000000  1.0
  O  O12  1  0.05390212  0.72012072  0.33803603  1.0
  O  O13  1  0.27987928  0.94609788  0.16196397  1.0
  O  O14  1  0.05390212  0.33378140  0.16196397  1.0
  O  O15  1  0.27987928  0.33378140  0.33803603  1.0
  O  O16  1  0.66621860  0.94609788  0.33803603  1.0
  O  O17  1  0.33378140  0.27987928  0.66196397  1.0
  O  O18  1  0.66621860  0.72012072  0.16196397  1.0
  O  O19  1  0.33378140  0.05390212  0.83803603  1.0
  O  O20  1  0.72012072  0.66621860  0.83803603  1.0
  O  O21  1  0.94609788  0.66621860  0.66196397  1.0
  O  O22  1  0.72012072  0.05390212  0.66196397  1.0
  O  O23  1  0.94609788  0.27987928  0.83803603  1.0
