# generated using pymatgen
data_Ag2GePbS4
_symmetry_space_group_name_H-M   'P 1'
_cell_length_a   6.90072036
_cell_length_b   10.38407904
_cell_length_c   10.17967010
_cell_angle_alpha   90.00000000
_cell_angle_beta   90.00000000
_cell_angle_gamma   90.00000000
_symmetry_Int_Tables_number   1
_chemical_formula_structural   Ag2GePbS4
_chemical_formula_sum   'Ag8 Ge4 Pb4 S16'
_cell_volume   729.45098928
_cell_formula_units_Z   4
loop_
 _symmetry_equiv_pos_site_id
 _symmetry_equiv_pos_as_xyz
  1  'x, y, z'
loop_
 _atom_site_type_symbol
 _atom_site_label
 _atom_site_symmetry_multiplicity
 _atom_site_fract_x
 _atom_site_fract_y
 _atom_site_fract_z
 _atom_site_occupancy
  Ag  Ag0  1  0.52755546  0.88331622  0.09912059  1.0
  Ag  Ag1  1  0.52755546  0.88331622  0.40087941  1.0
  Ag  Ag2  1  0.52755546  0.11668378  0.59912059  1.0
  Ag  Ag3  1  0.52755546  0.11668378  0.90087941  1.0
  Ag  Ag4  1  0.02755546  0.38331622  0.09912059  1.0
  Ag  Ag5  1  0.02755546  0.38331622  0.40087941  1.0
  Ag  Ag6  1  0.02755546  0.61668378  0.59912059  1.0
  Ag  Ag7  1  0.02755546  0.61668378  0.90087941  1.0
  Ge  Ge8  1  0.47456379  0.20175491  0.25000000  1.0
  Ge  Ge9  1  0.47456379  0.79824509  0.75000000  1.0
  Ge  Ge10  1  0.97456379  0.70175491  0.25000000  1.0
  Ge  Ge11  1  0.97456379  0.29824509  0.75000000  1.0
  Pb  Pb12  1  0.01293009  0.00000000  0.00000000  1.0
  Pb  Pb13  1  0.01293009  0.00000000  0.50000000  1.0
  Pb  Pb14  1  0.51293009  0.50000000  0.00000000  1.0
  Pb  Pb15  1  0.51293009  0.50000000  0.50000000  1.0
  S  S16  1  0.29183948  0.19816100  0.06909331  1.0
  S  S17  1  0.14379487  0.88290298  0.25000000  1.0
  S  S18  1  0.68482688  0.03972584  0.25000000  1.0
  S  S19  1  0.29183948  0.19816100  0.43090669  1.0
  S  S20  1  0.29183948  0.80183900  0.56909331  1.0
  S  S21  1  0.14379487  0.11709702  0.75000000  1.0
  S  S22  1  0.68482688  0.96027416  0.75000000  1.0
  S  S23  1  0.29183948  0.80183900  0.93090669  1.0
  S  S24  1  0.79183948  0.69816100  0.06909331  1.0
  S  S25  1  0.64379487  0.38290298  0.25000000  1.0
  S  S26  1  0.18482688  0.53972584  0.25000000  1.0
  S  S27  1  0.79183948  0.69816100  0.43090669  1.0
  S  S28  1  0.79183948  0.30183900  0.56909331  1.0
  S  S29  1  0.64379487  0.61709702  0.75000000  1.0
  S  S30  1  0.18482688  0.46027416  0.75000000  1.0
  S  S31  1  0.79183948  0.30183900  0.93090669  1.0
