# generated using pymatgen
data_Ag2Br3
_symmetry_space_group_name_H-M   'P 1'
_cell_length_a   6.94004380
_cell_length_b   6.94004380
_cell_length_c   19.00177374
_cell_angle_alpha   90.00000000
_cell_angle_beta   90.00000000
_cell_angle_gamma   120.00000000
_symmetry_Int_Tables_number   1
_chemical_formula_structural   Ag2Br3
_chemical_formula_sum   'Ag12 Br18'
_cell_volume   792.59111028
_cell_formula_units_Z   6
loop_
 _symmetry_equiv_pos_site_id
 _symmetry_equiv_pos_as_xyz
  1  'x, y, z'
loop_
 _atom_site_type_symbol
 _atom_site_label
 _atom_site_symmetry_multiplicity
 _atom_site_fract_x
 _atom_site_fract_y
 _atom_site_fract_z
 _atom_site_occupancy
  Ag  Ag0  1  0.33333333  0.66666667  0.00647387  1.0
  Ag  Ag1  1  0.00000000  0.00000000  0.16019280  1.0
  Ag  Ag2  1  0.66666667  0.33333333  0.17314053  1.0
  Ag  Ag3  1  0.33333333  0.66666667  0.32685947  1.0
  Ag  Ag4  1  0.00000000  0.00000000  0.33980720  1.0
  Ag  Ag5  1  0.66666667  0.33333333  0.49352613  1.0
  Ag  Ag6  1  0.33333333  0.66666667  0.50647387  1.0
  Ag  Ag7  1  0.00000000  0.00000000  0.66019280  1.0
  Ag  Ag8  1  0.66666667  0.33333333  0.67314053  1.0
  Ag  Ag9  1  0.33333333  0.66666667  0.82685947  1.0
  Ag  Ag10  1  0.00000000  0.00000000  0.83980720  1.0
  Ag  Ag11  1  0.66666667  0.33333333  0.99352613  1.0
  Br  Br12  1  0.98890148  0.65556815  0.08333333  1.0
  Br  Br13  1  0.34443185  0.33333333  0.08333333  1.0
  Br  Br14  1  0.66666667  0.01109852  0.08333333  1.0
  Br  Br15  1  0.00000000  0.32223482  0.25000000  1.0
  Br  Br16  1  0.32223481  1.00000000  0.25000000  1.0
  Br  Br17  1  0.67776518  0.67776518  0.25000000  1.0
  Br  Br18  1  0.65556815  0.98890148  0.41666667  1.0
  Br  Br19  1  0.01109852  0.66666667  0.41666667  1.0
  Br  Br20  1  0.33333333  0.34443185  0.41666667  1.0
  Br  Br21  1  0.66666667  0.65556815  0.58333333  1.0
  Br  Br22  1  0.98890148  0.33333333  0.58333333  1.0
  Br  Br23  1  0.34443185  0.01109852  0.58333333  1.0
  Br  Br24  1  0.32223482  0.32223481  0.75000000  1.0
  Br  Br25  1  0.67776518  0.00000000  0.75000000  1.0
  Br  Br26  1  0.00000000  0.67776518  0.75000000  1.0
  Br  Br27  1  0.33333333  0.98890148  0.91666667  1.0
  Br  Br28  1  0.65556815  0.66666667  0.91666667  1.0
  Br  Br29  1  0.01109852  0.34443185  0.91666667  1.0
