# generated using pymatgen
data_AcAg3
_symmetry_space_group_name_H-M   'P 1'
_cell_length_a   6.95728609
_cell_length_b   12.17667788
_cell_length_c   4.74934570
_cell_angle_alpha   90.00000000
_cell_angle_beta   90.00000000
_cell_angle_gamma   90.00000000
_symmetry_Int_Tables_number   1
_chemical_formula_structural   AcAg3
_chemical_formula_sum   'Ac4 Ag12'
_cell_volume   402.34857018
_cell_formula_units_Z   4
loop_
 _symmetry_equiv_pos_site_id
 _symmetry_equiv_pos_as_xyz
  1  'x, y, z'
loop_
 _atom_site_type_symbol
 _atom_site_label
 _atom_site_symmetry_multiplicity
 _atom_site_fract_x
 _atom_site_fract_y
 _atom_site_fract_z
 _atom_site_occupancy
  Ac  Ac0  1  0.50000000  0.16815718  0.25000000  1.0
  Ac  Ac1  1  0.00000000  0.33184282  0.75000000  1.0
  Ac  Ac2  1  0.00000000  0.66815718  0.25000000  1.0
  Ac  Ac3  1  0.50000000  0.83184282  0.75000000  1.0
  Ag  Ag4  1  0.20878243  0.06849310  0.75000000  1.0
  Ag  Ag5  1  0.79121757  0.06849310  0.75000000  1.0
  Ag  Ag6  1  0.50000000  0.36238845  0.75000000  1.0
  Ag  Ag7  1  0.29121757  0.43150690  0.25000000  1.0
  Ag  Ag8  1  0.70878243  0.43150690  0.25000000  1.0
  Ag  Ag9  1  0.00000000  0.13761155  0.25000000  1.0
  Ag  Ag10  1  0.70878243  0.56849310  0.75000000  1.0
  Ag  Ag11  1  0.29121757  0.56849310  0.75000000  1.0
  Ag  Ag12  1  0.00000000  0.86238845  0.75000000  1.0
  Ag  Ag13  1  0.79121757  0.93150690  0.25000000  1.0
  Ag  Ag14  1  0.20878243  0.93150690  0.25000000  1.0
  Ag  Ag15  1  0.50000000  0.63761155  0.25000000  1.0
