# generated using pymatgen
data_AcCd3
_symmetry_space_group_name_H-M   'P 1'
_cell_length_a   7.20419355
_cell_length_b   4.97865278
_cell_length_c   7.23569106
_cell_angle_alpha   90.00000000
_cell_angle_beta   119.70196207
_cell_angle_gamma   90.00000000
_symmetry_Int_Tables_number   1
_chemical_formula_structural   AcCd3
_chemical_formula_sum   'Ac2 Cd6'
_cell_volume   225.42616623
_cell_formula_units_Z   2
loop_
 _symmetry_equiv_pos_site_id
 _symmetry_equiv_pos_as_xyz
  1  'x, y, z'
loop_
 _atom_site_type_symbol
 _atom_site_label
 _atom_site_symmetry_multiplicity
 _atom_site_fract_x
 _atom_site_fract_y
 _atom_site_fract_z
 _atom_site_occupancy
  Ac  Ac0  1  0.83264693  0.25000000  0.66393172  1.0
  Ac  Ac1  1  0.16735307  0.75000000  0.33606828  1.0
  Cd  Cd2  1  0.64775867  0.75000000  0.85495378  1.0
  Cd  Cd3  1  0.64431540  0.75000000  0.29021524  1.0
  Cd  Cd4  1  0.20797298  0.75000000  0.85589079  1.0
  Cd  Cd5  1  0.35224133  0.25000000  0.14504622  1.0
  Cd  Cd6  1  0.35568460  0.25000000  0.70978476  1.0
  Cd  Cd7  1  0.79202702  0.25000000  0.14410921  1.0
