# generated using pymatgen
data_AcAu3
_symmetry_space_group_name_H-M   'P 1'
_cell_length_a   6.92286701
_cell_length_b   6.92286701
_cell_length_c   4.68973519
_cell_angle_alpha   90.00000000
_cell_angle_beta   90.00000000
_cell_angle_gamma   120.00000000
_symmetry_Int_Tables_number   1
_chemical_formula_structural   AcAu3
_chemical_formula_sum   'Ac2 Au6'
_cell_volume   194.64844109
_cell_formula_units_Z   2
loop_
 _symmetry_equiv_pos_site_id
 _symmetry_equiv_pos_as_xyz
  1  'x, y, z'
loop_
 _atom_site_type_symbol
 _atom_site_label
 _atom_site_symmetry_multiplicity
 _atom_site_fract_x
 _atom_site_fract_y
 _atom_site_fract_z
 _atom_site_occupancy
  Ac  Ac0  1  0.33333333  0.66666667  0.75000000  1.0
  Ac  Ac1  1  0.66666667  0.33333333  0.25000000  1.0
  Au  Au2  1  0.14575906  0.29151811  0.25000000  1.0
  Au  Au3  1  0.70848189  0.85424094  0.25000000  1.0
  Au  Au4  1  0.14575906  0.85424094  0.25000000  1.0
  Au  Au5  1  0.85424094  0.70848189  0.75000000  1.0
  Au  Au6  1  0.29151811  0.14575906  0.75000000  1.0
  Au  Au7  1  0.85424094  0.14575906  0.75000000  1.0
