# generated using pymatgen
data_Ag2F3
_symmetry_space_group_name_H-M   'P 1'
_cell_length_a   5.74792044
_cell_length_b   5.74792044
_cell_length_c   15.96998435
_cell_angle_alpha   90.00000000
_cell_angle_beta   90.00000000
_cell_angle_gamma   120.00000000
_symmetry_Int_Tables_number   1
_chemical_formula_structural   Ag2F3
_chemical_formula_sum   'Ag12 F18'
_cell_volume   456.93730788
_cell_formula_units_Z   6
loop_
 _symmetry_equiv_pos_site_id
 _symmetry_equiv_pos_as_xyz
  1  'x, y, z'
loop_
 _atom_site_type_symbol
 _atom_site_label
 _atom_site_symmetry_multiplicity
 _atom_site_fract_x
 _atom_site_fract_y
 _atom_site_fract_z
 _atom_site_occupancy
  Ag  Ag0  1  0.66666667  0.33333333  0.18082678  1.0
  Ag  Ag1  1  0.33333333  0.66666667  0.31917322  1.0
  Ag  Ag2  1  0.33333333  0.66666667  0.01416012  1.0
  Ag  Ag3  1  0.00000000  0.00000000  0.15250655  1.0
  Ag  Ag4  1  0.33333333  0.66666667  0.51416012  1.0
  Ag  Ag5  1  0.00000000  0.00000000  0.65250655  1.0
  Ag  Ag6  1  0.00000000  0.00000000  0.34749345  1.0
  Ag  Ag7  1  0.66666667  0.33333333  0.48583988  1.0
  Ag  Ag8  1  0.00000000  0.00000000  0.84749345  1.0
  Ag  Ag9  1  0.66666667  0.33333333  0.98583988  1.0
  Ag  Ag10  1  0.66666667  0.33333333  0.68082678  1.0
  Ag  Ag11  1  0.33333333  0.66666667  0.81917322  1.0
  F  F12  1  0.69135589  0.00000000  0.25000000  1.0
  F  F13  1  0.30864411  0.30864411  0.25000000  1.0
  F  F14  1  0.00000000  0.69135589  0.25000000  1.0
  F  F15  1  0.66666667  0.64197744  0.08333333  1.0
  F  F16  1  0.35802256  0.02468922  0.08333333  1.0
  F  F17  1  0.97531078  0.33333333  0.08333333  1.0
  F  F18  1  0.35802256  0.33333333  0.58333333  1.0
  F  F19  1  0.97531078  0.64197744  0.58333333  1.0
  F  F20  1  0.66666667  0.02468922  0.58333333  1.0
  F  F21  1  0.33333333  0.97531078  0.41666667  1.0
  F  F22  1  0.02468922  0.35802256  0.41666667  1.0
  F  F23  1  0.64197744  0.66666667  0.41666667  1.0
  F  F24  1  0.02468922  0.66666667  0.91666667  1.0
  F  F25  1  0.64197744  0.97531078  0.91666667  1.0
  F  F26  1  0.33333333  0.35802256  0.91666667  1.0
  F  F27  1  0.00000000  0.30864411  0.75000000  1.0
  F  F28  1  0.69135589  0.69135589  0.75000000  1.0
  F  F29  1  0.30864411  0.00000000  0.75000000  1.0
