# generated using pymatgen
data_Ag2Cl3
_symmetry_space_group_name_H-M   'P 1'
_cell_length_a   6.61871531
_cell_length_b   6.61871531
_cell_length_c   18.14465728
_cell_angle_alpha   90.00000000
_cell_angle_beta   90.00000000
_cell_angle_gamma   120.00000000
_symmetry_Int_Tables_number   1
_chemical_formula_structural   Ag2Cl3
_chemical_formula_sum   'Ag12 Cl18'
_cell_volume   688.37771716
_cell_formula_units_Z   6
loop_
 _symmetry_equiv_pos_site_id
 _symmetry_equiv_pos_as_xyz
  1  'x, y, z'
loop_
 _atom_site_type_symbol
 _atom_site_label
 _atom_site_symmetry_multiplicity
 _atom_site_fract_x
 _atom_site_fract_y
 _atom_site_fract_z
 _atom_site_occupancy
  Ag  Ag0  1  0.33333333  0.66666667  0.00944739  1.0
  Ag  Ag1  1  0.00000000  0.00000000  0.15721928  1.0
  Ag  Ag2  1  0.66666667  0.33333333  0.17611405  1.0
  Ag  Ag3  1  0.33333333  0.66666667  0.32388595  1.0
  Ag  Ag4  1  0.00000000  0.00000000  0.34278072  1.0
  Ag  Ag5  1  0.66666667  0.33333333  0.49055261  1.0
  Ag  Ag6  1  0.33333333  0.66666667  0.50944739  1.0
  Ag  Ag7  1  0.00000000  0.00000000  0.65721928  1.0
  Ag  Ag8  1  0.66666667  0.33333333  0.67611405  1.0
  Ag  Ag9  1  0.33333333  0.66666667  0.82388595  1.0
  Ag  Ag10  1  0.00000000  0.00000000  0.84278072  1.0
  Ag  Ag11  1  0.66666667  0.33333333  0.99055261  1.0
  Cl  Cl12  1  0.34839423  0.33333333  0.08333333  1.0
  Cl  Cl13  1  0.66666667  0.01506089  0.08333333  1.0
  Cl  Cl14  1  0.98493911  0.65160577  0.08333333  1.0
  Cl  Cl15  1  0.68172756  0.68172756  0.25000000  1.0
  Cl  Cl16  1  0.00000000  0.31827244  0.25000000  1.0
  Cl  Cl17  1  0.31827244  0.00000000  0.25000000  1.0
  Cl  Cl18  1  0.01506089  0.66666667  0.41666667  1.0
  Cl  Cl19  1  0.33333333  0.34839423  0.41666667  1.0
  Cl  Cl20  1  0.65160577  0.98493911  0.41666667  1.0
  Cl  Cl21  1  0.34839423  0.01506089  0.58333333  1.0
  Cl  Cl22  1  0.66666667  0.65160577  0.58333333  1.0
  Cl  Cl23  1  0.98493911  0.33333333  0.58333333  1.0
  Cl  Cl24  1  0.68172756  0.00000000  0.75000000  1.0
  Cl  Cl25  1  0.00000000  0.68172756  0.75000000  1.0
  Cl  Cl26  1  0.31827244  0.31827244  0.75000000  1.0
  Cl  Cl27  1  0.01506089  0.34839423  0.91666667  1.0
  Cl  Cl28  1  0.33333333  0.98493911  0.91666667  1.0
  Cl  Cl29  1  0.65160577  0.66666667  0.91666667  1.0
